data/nesta/nesta_case3375wp_mp.m
%%%%%%%%%%%%%%%%%%%%%%%%%%%%%%%%%%%%%%%%%%%%%%%%%%%%%%%%%%%%%%%%%%%%%%%%%%%
%%%%                                                                  %%%%%
%%%%      NICTA Energy System Test Case Archive (NESTA) - v0.1.5      %%%%%
%%%%              Optimal Power Flow - Typical Operation              %%%%%
%%%%                       30 - October - 2014                        %%%%%
%%%%                                                                  %%%%%
%%%%%%%%%%%%%%%%%%%%%%%%%%%%%%%%%%%%%%%%%%%%%%%%%%%%%%%%%%%%%%%%%%%%%%%%%%%
%
%   Power flow data for Polish system - winter 2007-08 evening peak.
%   Please see CASEFORMAT for details on the case file format.
%
%   This case represents the Polish 400, 220 and 110 kV networks during
%   winter 2007-08 evening peak conditions and includes some equivalents
%   of the German, Czech and Slovak networks.
%
%   This data was graciously provided by, and is distributed with the
%   permission of, Roman Korab <roman.korab@polsl.pl>.
%
function mpc = nesta_case3375wp_mp
mpc.version = '2';
mpc.baseMVA = 100.0;

%% area data
%	area	refbus
mpc.areas = [
	1	 1;
];

%% bus data
%	bus_i	type	Pd	Qd	Gs	Bs	area	Vm	Va	baseKV	zone	Vmax	Vmin
mpc.bus = [
	10000	 1	 0.0	 0.0	 0.0	 0.0	 0	     1.0469	   -10.7049	 400.0	 0	     1.0500	     0.9500;
	10001	 1	 0.0	 0.0	 0.0	 0.0	 0	     1.0484	   -15.0478	 400.0	 0	     1.0500	     0.9500;
	10002	 1	 0.0	 0.0	 0.0	 0.0	 0	     1.0725	   -16.9655	 220.0	 0	     1.1100	     0.9500;
	10003	 1	 0.0	 0.0	 0.0	 0.0	 0	     1.0453	   -17.9312	 400.0	 0	     1.0500	     0.9500;
	10004	 1	 0.0	 0.0	 0.0	 0.0	 0	     1.0440	   -13.9733	 400.0	 0	     1.0500	     0.9500;
	10005	 1	 0.0	 0.0	 0.0	 0.0	 0	     1.0444	   -16.4987	 400.0	 0	     1.0500	     0.9500;
	10006	 1	 0.0	 0.0	 0.0	 0.0	 0	     1.0408	    -9.9035	 400.0	 0	     1.0500	     0.9500;
	10007	 1	 0.0	 0.0	 0.0	 0.0	 0	     1.0732	   -15.9186	 220.0	 0	     1.1100	     0.9500;
	10008	 1	 0.0	 0.0	 0.0	 0.0	 0	     1.0707	   -18.0750	 220.0	 0	     1.1100	     0.9500;
	10009	 1	 0.0	 0.0	 0.0	 0.0	 0	     1.0444	   -17.2805	 400.0	 0	     1.0500	     0.9500;
	10010	 1	 0.0	 0.0	 0.0	 0.0	 0	     1.0491	   -12.0739	 400.0	 0	     1.0500	     0.9500;
	10011	 1	 0.0	 0.0	 0.0	 0.0	 0	     1.0447	   -18.5945	 400.0	 0	     1.0500	     0.9500;
	10012	 1	 0.0	 0.0	 0.0	 0.0	 0	     1.0447	   -18.5945	 400.0	 0	     1.0500	     0.9500;
	10013	 1	 0.0	 0.0	 0.0	 0.0	 0	     1.0456	   -12.1977	 400.0	 0	     1.0500	     0.9500;
	10014	 1	 0.0	 0.0	 0.0	 0.0	 0	     1.0458	   -12.2292	 400.0	 0	     1.0500	     0.9500;
	10015	 1	 0.0	 0.0	 0.0	 0.0	 0	     1.0447	   -18.1543	 400.0	 0	     1.0500	     0.9500;
	10016	 1	 0.0	 0.0	 0.0	 0.0	 0	     1.0458	   -12.1167	 400.0	 0	     1.0500	     0.9500;
	10017	 1	 0.0	 0.0	 0.0	 0.0	 0	     1.0457	   -12.1208	 400.0	 0	     1.0500	     0.9500;
	10018	 1	 0.0	 0.0	 0.0	 0.0	 0	     1.0457	   -12.1135	 400.0	 0	     1.0500	     0.9500;
	10019	 1	 0.0	 0.0	 0.0	 0.0	 0	     1.0458	   -12.2292	 400.0	 0	     1.0500	     0.9500;
	10020	 1	 0.0	 0.0	 0.0	 0.0	 0	     1.0500	   -14.0775	 400.0	 0	     1.0500	     0.9500;
	10021	 1	 0.0	 0.0	 0.0	 0.0	 0	     1.0763	   -16.6074	 220.0	 0	     1.1100	     0.9500;
	10022	 1	 0.0	 0.0	 0.0	 0.0	 0	     1.0748	   -17.0198	 220.0	 0	     1.1100	     0.9500;
	10023	 1	 0.0	 0.0	 0.0	 0.0	 0	     1.0458	   -11.7566	 400.0	 0	     1.0500	     0.9500;
	10024	 1	 0.0	 0.0	 0.0	 0.0	 0	     1.0456	   -11.8561	 400.0	 0	     1.0500	     0.9500;
	10025	 1	 0.0	 0.0	 0.0	 0.0	 0	     1.0457	   -11.8032	 400.0	 0	     1.0500	     0.9500;
	10026	 1	 0.0	 0.0	 0.0	 0.0	 0	     1.0414	    -8.0351	 400.0	 0	     1.0500	     0.9500;
	10027	 1	 0.0	 0.0	 0.0	 0.0	 0	     1.0418	    -7.7621	 400.0	 0	     1.0500	     0.9500;
	10028	 1	 0.0	 0.0	 0.0	 0.0	 0	     1.0419	    -7.5647	 400.0	 0	     1.0500	     0.9500;
	10029	 1	 0.0	 0.0	 0.0	 0.0	 0	     1.0491	   -11.5362	 400.0	 0	     1.0500	     0.9500;
	10030	 1	 0.0	 0.0	 0.0	 0.0	 0	     1.0491	   -11.5310	 400.0	 0	     1.0500	     0.9500;
	10031	 1	 0.0	 0.0	 0.0	 0.0	 0	     1.0868	   -11.5932	 220.0	 0	     1.1100	     0.9500;
	10032	 1	 0.0	 0.0	 0.0	 0.0	 0	     1.0414	    -8.0506	 400.0	 0	     1.0500	     0.9500;
	10033	 1	 0.0	 0.0	 0.0	 0.0	 0	     1.0414	    -8.0505	 400.0	 0	     1.0500	     0.9500;
	10034	 1	 0.0	 0.0	 0.0	 0.0	 0	     1.0426	   -14.1493	 400.0	 0	     1.0500	     0.9500;
	10035	 1	 0.0	 0.0	 0.0	 0.0	 0	     1.0725	   -12.3724	 220.0	 0	     1.1100	     0.9500;
	10036	 1	 0.0	 0.0	 0.0	 0.0	 0	     1.0726	   -12.3800	 220.0	 0	     1.1100	     0.9500;
	10037	 1	 0.0	 0.0	 0.0	 0.0	 0	     1.0414	    -8.1486	 400.0	 0	     1.0500	     0.9500;
	10038	 1	 0.0	 0.0	 0.0	 0.0	 0	     1.0414	    -8.1566	 400.0	 0	     1.0500	     0.9500;
	10039	 1	 0.0	 0.0	 0.0	 0.0	 0	     1.0419	    -8.2044	 400.0	 0	     1.0500	     0.9500;
	10040	 1	 0.0	 0.0	 0.0	 0.0	 0	     1.0451	   -12.9196	 400.0	 0	     1.0500	     0.9500;
	10041	 1	 0.0	 0.0	 0.0	 0.0	 0	     1.0492	   -11.6698	 400.0	 0	     1.0500	     0.9500;
	10042	 1	 0.0	 0.0	 0.0	 0.0	 0	     1.0449	   -18.8166	 400.0	 0	     1.0500	     0.9500;
	10043	 1	 0.0	 0.0	 0.0	 0.0	 0	     1.0659	   -14.1772	 220.0	 0	     1.1100	     0.9500;
	10044	 1	 0.0	 0.0	 0.0	 0.0	 0	     1.0731	   -13.3306	 220.0	 0	     1.1100	     0.9500;
	10045	 1	 0.0	 0.0	 0.0	 0.0	 0	     1.0674	   -18.9363	 220.0	 0	     1.1100	     0.9500;
	10046	 1	 0.0	 0.0	 0.0	 0.0	 0	     1.0748	   -17.0193	 220.0	 0	     1.1100	     0.9500;
	10047	 1	 0.0	 0.0	 0.0	 0.0	 0	     1.0435	   -19.7290	 400.0	 0	     1.0500	     0.9500;
	10048	 1	 0.0	 0.0	 0.0	 0.0	 0	     1.0459	   -11.2079	 400.0	 0	     1.0500	     0.9500;
	10049	 1	 0.0	 0.0	 0.0	 0.0	 0	     1.0488	   -11.7187	 400.0	 0	     1.0500	     0.9500;
	10050	 1	 0.0	 0.0	 0.0	 0.0	 0	     1.0492	   -11.6698	 400.0	 0	     1.0500	     0.9500;
	10051	 1	 0.0	 0.0	 0.0	 0.0	 0	     1.0643	   -18.6481	 220.0	 0	     1.1100	     0.9500;
	10052	 1	 0.0	 0.0	 0.0	 0.0	 0	     1.0428	   -16.3952	 400.0	 0	     1.0500	     0.9500;
	10053	 1	 0.0	 0.0	 0.0	 0.0	 0	     1.0885	   -11.0346	 220.0	 0	     1.1100	     0.9500;
	10054	 1	 0.0	 0.0	 0.0	 0.0	 0	     1.0885	   -11.0346	 220.0	 0	     1.1100	     0.9500;
	10055	 1	 0.0	 0.0	 0.0	 0.0	 0	     1.0802	   -14.9384	 220.0	 0	     1.1100	     0.9500;
	10056	 1	 0.0	 0.0	 0.0	 0.0	 0	     1.0418	   -10.1534	 400.0	 0	     1.0500	     0.9500;
	10057	 1	 0.0	 0.0	 0.0	 0.0	 0	     1.0397	    -9.1454	 400.0	 0	     1.0500	     0.9500;
	10058	 1	 0.0	 0.0	 0.0	 0.0	 0	     1.0598	   -16.7069	 220.0	 0	     1.1100	     0.9500;
	10059	 1	 0.0	 0.0	 0.0	 0.0	 0	     1.0500	   -15.8165	 400.0	 0	     1.0500	     0.9500;
	10060	 1	 0.0	 0.0	 0.0	 0.0	 0	     1.0414	    -8.1526	 400.0	 0	     1.0500	     0.9500;
	10061	 1	 0.0	 0.0	 0.0	 0.0	 0	     1.0418	   -10.1534	 400.0	 0	     1.0500	     0.9500;
	10062	 1	 0.0	 0.0	 0.0	 0.0	 0	     1.0430	   -15.7540	 400.0	 0	     1.0500	     0.9500;
	10063	 1	 0.0	 0.0	 0.0	 0.0	 0	     1.0458	   -12.2292	 400.0	 0	     1.0500	     0.9500;
	10064	 1	 0.0	 0.0	 0.0	 0.0	 0	     1.0657	   -16.2821	 220.0	 0	     1.1100	     0.9500;
	10065	 1	 0.0	 0.0	 0.0	 0.0	 0	     1.0467	   -13.5330	 400.0	 0	     1.0500	     0.9500;
	10066	 1	 0.0	 0.0	 0.0	 0.0	 0	     1.0488	   -12.2138	 400.0	 0	     1.0500	     0.9500;
	10067	 1	 0.0	 0.0	 0.0	 0.0	 0	     1.0675	   -15.3697	 220.0	 0	     1.1100	     0.9500;
	10068	 1	 0.0	 0.0	 0.0	 0.0	 0	     1.0490	   -13.1210	 400.0	 0	     1.0500	     0.9500;
	10069	 1	 0.0	 0.0	 0.0	 0.0	 0	     1.0664	   -19.2243	 220.0	 0	     1.1100	     0.9500;
	10070	 1	 0.0	 0.0	 0.0	 0.0	 0	     1.0447	   -18.5943	 400.0	 0	     1.0500	     0.9500;
	10071	 2	 16.0	 8.0	 0.0	 0.0	 0	     1.0762	   -15.2896	 220.0	 0	     1.1100	     0.9500;
	10072	 1	 0.0	 0.0	 0.0	 0.0	 0	     1.0860	   -11.7689	 220.0	 0	     1.1100	     0.9500;
	10073	 1	 0.0	 0.0	 0.0	 0.0	 1	     1.0747	   -13.3669	 220.0	 0	     1.1100	     0.9500;
	10074	 1	 0.0	 0.0	 0.0	 0.0	 0	     1.0738	   -13.3428	 220.0	 0	     1.1100	     0.9500;
	10075	 1	 0.0	 0.0	 0.0	 0.0	 0	     1.0726	   -14.1716	 220.0	 0	     1.1100	     0.9500;
	10076	 1	 0.0	 0.0	 0.0	 0.0	 0	     1.0456	   -11.8560	 400.0	 0	     1.0500	     0.9500;
	10077	 1	 0.0	 0.0	 0.0	 0.0	 0	     1.0456	   -11.8560	 400.0	 0	     1.0500	     0.9500;
	10078	 1	 305.5	 -14.0	 0.0	 0.0	 0	     1.0346	    -8.2158	 400.0	 0	     1.0500	     0.9500;
	10079	 2	 -1529.6	 4542.9	 0.0	 0.0	 0	     1.0132	    -0.0517	 400.0	 0	     1.0500	     0.9500;
	10080	 2	 -159.1	 -181.0	 0.0	 0.0	 0	     1.0286	    -4.8845	 400.0	 0	     1.0500	     0.9500;
	10081	 1	 -1078.3	 -374.1	 0.0	 0.0	 0	     1.0345	    -0.9189	 400.0	 0	     1.0500	     0.9500;
	10082	 1	 943.2	 310.2	 0.0	 0.0	 0	     1.0037	    -4.4374	 400.0	 0	     1.0500	     0.9500;
	10083	 1	 97.0	 26.0	 0.0	 0.0	 0	     1.0414	    -5.5438	 400.0	 0	     1.0500	     0.9500;
	10084	 1	 0.6	 160.0	 0.0	 0.0	 0	     1.0421	    -5.4102	 400.0	 0	     1.0500	     0.9500;
	10085	 1	 161.6	 183.6	 0.0	 0.0	 0	     1.0411	    -5.5251	 400.0	 0	     1.0500	     0.9500;
	10086	 1	 288.6	 221.6	 0.0	 0.0	 0	     1.0411	    -5.5277	 400.0	 0	     1.0500	     0.9500;
	10087	 1	 0.0	 0.0	 0.0	 0.0	 0	     1.0431	    -5.3178	 400.0	 0	     1.0500	     0.9500;
	10088	 1	 0.0	 0.0	 0.0	 0.0	 0	     1.0890	    -5.6232	 220.0	 0	     1.1100	     0.9500;
	10089	 1	 0.0	 0.0	 0.0	 0.0	 0	     1.0867	    -5.7485	 220.0	 0	     1.1100	     0.9500;
	10090	 2	 274.4	 279.6	 0.0	 0.0	 0	     1.0414	    -5.5189	 400.0	 0	     1.0500	     0.9500;
	10091	 1	 94.2	 111.8	 0.0	 0.0	 0	     1.0408	    -5.5352	 400.0	 0	     1.0500	     0.9500;
	10092	 1	 0.0	 0.0	 0.0	 0.0	 0	     1.0851	    -5.8160	 220.0	 0	     1.1100	     0.9500;
	10093	 1	 0.0	 0.0	 0.0	 0.0	 0	     1.0877	    -5.6707	 220.0	 0	     1.1100	     0.9500;
	10094	 2	 0.0	 0.0	 0.0	 0.0	 0	     1.0353	    -4.6408	 400.0	 0	     1.0500	     0.9500;
	10095	 2	 4.4	 -2590.1	 0.0	 0.0	 0	     1.0297	    -6.0357	 400.0	 0	     1.0500	     0.9500;
	10096	 1	 488.0	 79.1	 0.0	 0.0	 0	     1.0213	    -6.2389	 400.0	 0	     1.0500	     0.9500;
	10097	 1	 601.0	 147.9	 0.0	 0.0	 0	     1.0247	    -6.1492	 400.0	 0	     1.0500	     0.9500;
	10098	 1	 527.0	 265.1	 0.0	 0.0	 0	     1.0259	    -5.4256	 400.0	 0	     1.0500	     0.9500;
	10099	 1	 0.0	 0.0	 0.0	 0.0	 0	     1.0048	    -2.4281	 400.0	 0	     1.0500	     0.9500;
	10100	 2	 0.0	 0.0	 0.0	 0.0	 0	     1.0407	    -0.8629	 400.0	 0	     1.0500	     0.9500;
	10101	 1	 0.0	 0.0	 0.0	 0.0	 0	     1.0399	   -13.1789	 220.0	 0	     1.1100	     0.9500;
	10102	 1	 120.0	 25.0	 0.0	 0.0	 0	     1.0587	    -7.3916	 220.0	 0	     1.1100	     0.9500;
	10103	 1	 0.0	 0.0	 0.0	 0.0	 0	     1.0397	    -3.4717	 400.0	 0	     1.0500	     0.9500;
	10104	 2	 200.2	 48.7	 0.0	 0.0	 0	     1.0441	    -2.3560	 400.0	 0	     1.0500	     0.9500;
	10105	 1	 0.0	 0.0	 0.0	 0.0	 0	     1.0647	    -7.8075	 220.0	 0	     1.1100	     0.9500;
	10106	 1	 0.0	 0.0	 0.0	 0.0	 0	     1.0344	    -4.4715	 400.0	 0	     1.0500	     0.9500;
	10107	 1	 0.0	 0.0	 0.0	 0.0	 0	     1.0422	    -3.1218	 400.0	 0	     1.0500	     0.9500;
	10108	 1	 0.0	 0.0	 0.0	 0.0	 0	     1.0428	    -2.8054	 400.0	 0	     1.0500	     0.9500;
	10109	 1	 0.0	 0.0	 0.0	 0.0	 0	     1.0422	    -3.0452	 400.0	 0	     1.0500	     0.9500;
	10110	 1	 0.0	 0.0	 0.0	 0.0	 0	     1.0428	    -2.7241	 400.0	 0	     1.0500	     0.9500;
	10111	 1	 0.0	 0.0	 0.0	 0.0	 0	     1.0263	    -1.8191	 400.0	 0	     1.0500	     0.9500;
	10112	 1	 0.0	 0.0	 0.0	 0.0	 0	     1.1081	    -5.0326	 220.0	 0	     1.1100	     0.9500;
	10113	 1	 0.0	 0.0	 0.0	 0.0	 0	     1.0181	    -2.5123	 400.0	 0	     1.0500	     0.9500;
	10114	 1	 0.0	 0.0	 0.0	 0.0	 0	     1.0906	    -6.9553	 220.0	 0	     1.1100	     0.9500;
	10115	 2	 0.0	 0.0	 0.0	 0.0	 0	     1.0023	    -2.2073	 400.0	 0	     1.0500	     0.9500;
	10116	 2	 0.0	 0.0	 0.0	 0.0	 0	     1.0023	    -2.2073	 400.0	 0	     1.0500	     0.9500;
	10117	 1	 0.0	 0.0	 0.0	 0.0	 0	     1.0322	    -5.3856	 400.0	 0	     1.0500	     0.9500;
	10118	 2	 0.0	 0.0	 0.0	 0.0	 0	     1.0410	    -0.5249	 400.0	 0	     1.0500	     0.9500;
	10119	 1	 0.0	 0.0	 0.0	 0.0	 0	     1.0122	    -3.2983	 400.0	 0	     1.0500	     0.9500;
	10120	 1	 0.0	 0.0	 0.0	 0.0	 0	     1.0398	    -3.9626	 400.0	 0	     1.0500	     0.9500;
	10121	 1	 80.0	 20.0	 0.0	 0.0	 0	     1.0572	    -6.3441	 220.0	 0	     1.1100	     0.9500;
	10122	 1	 0.0	 0.0	 0.0	 0.0	 0	     1.0502	    -9.7844	 220.0	 0	     1.1100	     0.9500;
	10123	 1	 0.0	 0.0	 0.0	 0.0	 0	     1.0489	    -3.7108	 400.0	 0	     1.0500	     0.9500;
	10124	 1	 0.0	 0.0	 0.0	 0.0	 0	     1.0500	    -0.9584	 400.0	 0	     1.0500	     0.9500;
	10125	 1	 0.0	 0.0	 0.0	 0.0	 0	     1.0132	    -4.3922	 400.0	 0	     1.0500	     0.9500;
	10126	 2	 0.0	 0.0	 0.0	 0.0	 0	     1.0080	    -3.5414	 400.0	 0	     1.0500	     0.9500;
	10127	 1	 0.0	 0.0	 0.0	 0.0	 0	     1.0961	    -7.2241	 220.0	 0	     1.1100	     0.9500;
	10128	 1	 0.0	 0.0	 0.0	 0.0	 0	     1.0961	    -7.2241	 220.0	 0	     1.1100	     0.9500;
	10129	 2	 0.2	 100.0	 0.0	 0.0	 0	     1.0454	     0.0245	 400.0	 0	     1.0500	     0.9500;
	10130	 1	 0.0	 0.0	 0.0	 0.0	 0	     1.0455	    -0.0020	 400.0	 0	     1.0500	     0.9500;
	10131	 1	 0.0	 0.0	 0.0	 0.0	 0	     1.0097	    -4.0407	 400.0	 0	     1.0500	     0.9500;
	10132	 2	 0.0	 0.0	 0.0	 0.0	 0	     1.0291	    -4.5493	 400.0	 0	     1.0500	     0.9500;
	10133	 1	 0.0	 0.0	 0.0	 0.0	 0	     1.0500	    -4.3337	 400.0	 0	     1.0500	     0.9500;
	10134	 1	 0.0	 0.0	 0.0	 0.0	 0	     1.0471	    -4.9662	 400.0	 0	     1.0500	     0.9500;
	10135	 1	 0.0	 0.0	 0.0	 0.0	 0	     1.0514	    -5.1369	 220.0	 0	     1.1100	     0.9500;
	10136	 1	 0.0	 0.0	 0.0	 0.0	 0	     1.0716	    -7.4874	 220.0	 0	     1.1100	     0.9500;
	10137	 1	 0.0	 0.0	 0.0	 0.0	 0	     1.0387	   -15.9892	 220.0	 0	     1.1100	     0.9500;
	10138	 1	 0.0	 0.0	 0.0	 0.0	 0	     1.0340	    -5.1618	 400.0	 0	     1.0500	     0.9500;
	10139	 2	 0.0	 0.0	 0.0	 0.0	 0	     1.0374	    -1.8179	 400.0	 0	     1.0500	     0.9500;
	10140	 2	 0.0	 0.0	 0.0	 0.0	 0	     1.0386	    -1.3347	 400.0	 0	     1.0500	     0.9500;
	10141	 2	 0.0	 0.0	 0.0	 0.0	 0	     1.0126	    -1.6168	 400.0	 0	     1.0500	     0.9500;
	10142	 1	 0.0	 0.0	 0.0	 0.0	 0	     1.0374	    -4.8839	 400.0	 0	     1.0500	     0.9500;
	10143	 1	 0.0	 0.0	 0.0	 0.0	 0	     1.0360	    -3.0404	 400.0	 0	     1.0500	     0.9500;
	10144	 1	 0.0	 0.0	 0.0	 0.0	 0	     1.0360	    -3.0391	 400.0	 0	     1.0500	     0.9500;
	10145	 1	 0.0	 0.0	 0.0	 0.0	 0	     1.0103	    -3.7420	 400.0	 0	     1.0500	     0.9500;
	10146	 2	 0.0	 0.0	 0.0	 0.0	 0	     1.0430	    -3.5178	 220.0	 0	     1.1100	     0.9500;
	10147	 1	 0.0	 0.0	 0.0	 0.0	 0	     1.0313	    -5.3705	 400.0	 0	     1.0500	     0.9500;
	10148	 1	 0.0	 0.0	 0.0	 0.0	 0	     1.0736	    -7.1543	 220.0	 0	     1.1100	     0.9500;
	10149	 1	 0.0	 0.0	 0.0	 0.0	 0	     1.0736	    -7.1571	 220.0	 0	     1.1100	     0.9500;
	10150	 2	 0.0	 0.0	 0.0	 0.0	 0	     1.0401	    -3.3455	 400.0	 0	     1.0500	     0.9500;
	10151	 1	 0.0	 0.0	 0.0	 0.0	 0	     1.0415	    -3.0972	 400.0	 0	     1.0500	     0.9500;
	10152	 1	 0.0	 0.0	 0.0	 0.0	 0	     1.0467	    -1.4259	 400.0	 0	     1.0500	     0.9500;
	10153	 1	 0.0	 0.0	 0.0	 0.0	 0	     1.0310	    -2.8434	 400.0	 0	     1.0500	     0.9500;
	10154	 1	 80.0	 20.0	 0.0	 0.0	 0	     1.0360	    -4.2555	 220.0	 0	     1.1100	     0.9500;
	10155	 1	 0.0	 0.0	 0.0	 0.0	 0	     1.0819	    -7.3652	 220.0	 0	     1.1100	     0.9500;
	10156	 1	 0.0	 0.0	 0.0	 0.0	 0	     1.0308	    -5.1579	 400.0	 0	     1.0500	     0.9500;
	10157	 1	 0.0	 0.0	 0.0	 0.0	 0	     1.0872	    -5.5406	 220.0	 0	     1.1100	     0.9500;
	10158	 1	 0.0	 0.0	 0.0	 0.0	 0	     1.0137	    -2.9668	 400.0	 0	     1.0500	     0.9500;
	10159	 1	 0.0	 0.0	 0.0	 0.0	 0	     1.1100	    -4.8946	 220.0	 0	     1.1100	     0.9500;
	10160	 1	 0.0	 0.0	 0.0	 0.0	 0	     1.0642	   -17.6683	 220.0	 0	     1.1100	     0.9500;
	10161	 1	 0.0	 0.0	 0.0	 0.0	 0	     1.0209	    -4.6811	 400.0	 0	     1.0500	     0.9500;
	10162	 1	 0.0	 0.0	 0.0	 0.0	 0	     1.0593	    -8.9055	 220.0	 0	     1.1100	     0.9500;
	10163	 1	 0.0	 0.0	 0.0	 0.0	 0	     1.0945	    -7.4474	 220.0	 0	     1.1100	     0.9500;
	10164	 1	 0.0	 0.0	 0.0	 0.0	 0	     1.0290	    -4.9284	 400.0	 0	     1.0500	     0.9500;
	10165	 1	 0.0	 0.0	 0.0	 0.0	 0	     1.0334	    -5.5701	 400.0	 0	     1.0500	     0.9500;
	10166	 1	 0.0	 0.0	 0.0	 0.0	 0	     1.0661	    -6.4215	 220.0	 0	     1.1100	     0.9500;
	10167	 1	 0.0	 0.0	 0.0	 0.0	 0	     1.0291	    -5.0415	 400.0	 0	     1.0500	     0.9500;
	10168	 1	 0.0	 0.0	 0.0	 0.0	 0	     1.0291	    -5.0415	 400.0	 0	     1.0500	     0.9500;
	10169	 1	 0.0	 0.0	 0.0	 0.0	 0	     1.0294	    -4.9950	 400.0	 0	     1.0500	     0.9500;
	10170	 1	 0.0	 0.0	 0.0	 0.0	 0	     1.0294	    -4.9950	 400.0	 0	     1.0500	     0.9500;
	10171	 2	 -104.8	 -159.0	 0.0	 0.0	 0	     1.0295	    -4.6362	 400.0	 0	     1.0500	     0.9500;
	10172	 1	 247.4	 -57.5	 0.0	 0.0	 0	     1.0297	    -6.0402	 400.0	 0	     1.0500	     0.9500;
	10173	 1	 247.4	 -57.5	 0.0	 0.0	 0	     1.0297	    -6.0402	 400.0	 0	     1.0500	     0.9500;
	10174	 1	 371.5	 403.5	 0.0	 0.0	 0	     1.0206	    -6.2604	 400.0	 0	     1.0500	     0.9500;
	10176	 2	 -249.9	 162.6	 0.0	 0.0	 0	     1.0298	    -4.7916	 400.0	 0	     1.0500	     0.9500;
	10177	 2	 -249.9	 162.6	 0.0	 0.0	 0	     1.0298	    -4.7916	 400.0	 0	     1.0500	     0.9500;
	10178	 1	 52.5	 207.2	 0.0	 0.0	 0	     1.0273	   -10.4183	 400.0	 0	     1.0500	     0.9500;
	10179	 1	 379.5	 54.6	 0.0	 0.0	 0	     1.0389	   -13.2201	 400.0	 0	     1.0500	     0.9500;
	10180	 1	 73.6	 -95.6	 0.0	 0.0	 0	     1.0876	   -16.7535	 220.0	 0	     1.1100	     0.9500;
	10181	 1	 73.6	 -95.6	 0.0	 0.0	 0	     1.0876	   -16.7535	 220.0	 0	     1.1100	     0.9500;
	10182	 1	 107.2	 -44.4	 0.0	 0.0	 0	     1.0500	   -12.7111	 400.0	 0	     1.0500	     0.9500;
	10183	 1	 86.0	 8.0	 0.0	 0.0	 0	     1.0486	   -10.4540	 400.0	 0	     1.0500	     0.9500;
	10184	 1	 70.0	 49.0	 0.0	 0.0	 0	     1.0507	   -14.3310	 220.0	 0	     1.1100	     0.9500;
	10185	 1	 0.0	 0.0	 0.0	 0.0	 0	     1.0494	   -12.6717	 400.0	 0	     1.0500	     0.9500;
	10186	 2	 0.0	 0.0	 0.0	 0.0	 0	     1.0893	    -7.6091	 220.0	 0	     1.1100	     0.9500;
	10187	 2	 0.0	 0.0	 0.0	 0.0	 0	     1.0894	    -7.5762	 220.0	 0	     1.1100	     0.9500;
	10188	 2	 0.0	 0.0	 0.0	 0.0	 0	     1.0459	    -9.1200	 400.0	 0	     1.0500	     0.9500;
	10189	 2	 10.2	 0.0	 0.0	 0.0	 0	     1.0456	   -10.3671	 400.0	 0	     1.0500	     0.9500;
	10190	 2	 0.0	 0.0	 0.0	 0.0	 0	     1.0429	    -9.9602	 400.0	 0	     1.0500	     0.9500;
	10191	 2	 0.0	 0.0	 0.0	 0.0	 0	     1.0429	    -9.9550	 400.0	 0	     1.0500	     0.9500;
	10192	 2	 0.0	 0.0	 0.0	 0.0	 0	     1.0407	   -11.0432	 220.0	 0	     1.1100	     0.9500;
	10193	 1	 0.0	 0.0	 0.0	 0.0	 0	     1.0407	   -11.0455	 220.0	 0	     1.1100	     0.9500;
	10194	 2	 0.0	 0.0	 0.0	 0.0	 0	     1.0358	    -9.3991	 400.0	 0	     1.0500	     0.9500;
	10195	 1	 0.0	 0.0	 0.0	 0.0	 0	     1.0366	    -9.4381	 400.0	 0	     1.0500	     0.9500;
	10196	 2	 0.0	 0.0	 0.0	 0.0	 0	     1.0409	   -12.6982	 400.0	 0	     1.0500	     0.9500;
	10197	 1	 295.0	 51.9	 0.0	 0.0	 0	     1.0440	   -12.2282	 400.0	 0	     1.0500	     0.9500;
	10198	 1	 0.0	 0.0	 0.0	 0.0	 0	     1.0466	   -10.8692	 400.0	 0	     1.0500	     0.9500;
	10199	 1	 308.0	 40.0	 0.0	 0.0	 0	     1.0815	   -10.1017	 220.0	 0	     1.1100	     0.9500;
	10200	 1	 0.0	 0.0	 0.0	 0.0	 0	     1.0815	   -10.0850	 220.0	 0	     1.1100	     0.9500;
...
];

%% generator data
%	bus	Pg	Qg	Qmax	Qmin	Vg	mBase	status	Pmax	Pmin	Pc1	Pc2	Qc1min	Qc1max	Qc2min	Qc2max	ramp_agc	ramp_10	ramp_30	ramp_q	apf
mpc.gen = [
	10071	 133.9	 0.7	 103.0	 -103.0	 1.07617	 285.0	 1	 204.6	 133.9	 0.0	 0.0	 0.0	 0.0	 0.0	 0.0	 0.0	 0.0	 0.0	 0.0	 0.0; % NG
	10079	 359.9	 4404.9	 4000	 -275.0	 1.01319	 2031.0	 1	 549.9	 359.9	 0.0	 0.0	 0.0	 0.0	 0.0	 0.0	 0.0	 0.0	 0.0	 0.0	 0.0; % COW
	10080	 7.6	 -358.3	 6.0	 -6.0	 1.02855	 119.0	 1	 11.6	 7.6	 0.0	 0.0	 0.0	 0.0	 0.0	 0.0	 0.0	 0.0	 0.0	 0.0	 0.0; % NG
	10090	 410.4	 188.1	 314.0	 -314.0	 1.04139	 806.0	 1	 627.0	 410.4	 0.0	 0.0	 0.0	 0.0	 0.0	 0.0	 0.0	 0.0	 0.0	 0.0	 0.0; % NG
	10094	 554.4	 10091.5	 424.0	 -424.0	 1.03526	 970.0	 1	 847.0	 554.4	 0.0	 0.0	 0.0	 0.0	 0.0	 0.0	 0.0	 0.0	 0.0	 0.0	 0.0; % COW
	10095	 121.8	 -2580.1	 621.0	 -621.0	 1.02969	 1439.0	 1	 1241.5	 121.8	 0.0	 0.0	 0.0	 0.0	 0.0	 0.0	 0.0	 0.0	 0.0	 0.0	 0.0; % COW
	10100	 1267.2	 -118.4	 968.0	 -968.0	 1.04073	 2202.0	 1	 1936.0	 1267.2	 0.0	 0.0	 0.0	 0.0	 0.0	 0.0	 0.0	 0.0	 0.0	 0.0	 0.0; % COW
	10104	 540.0	 56.7	 413.0	 -413.0	 1.04409	 939.0	 1	 825.0	 540.0	 0.0	 0.0	 0.0	 0.0	 0.0	 0.0	 0.0	 0.0	 0.0	 0.0	 0.0; % COW
	10115	 280.8	 -228.6	 215.0	 -215.0	 1.00234	 492.0	 1	 429.0	 280.8	 0.0	 0.0	 0.0	 0.0	 0.0	 0.0	 0.0	 0.0	 0.0	 0.0	 0.0; % NG
	10116	 280.8	 -228.6	 215.0	 -215.0	 1.00234	 492.0	 1	 429.0	 280.8	 0.0	 0.0	 0.0	 0.0	 0.0	 0.0	 0.0	 0.0	 0.0	 0.0	 0.0; % NG
	10118	 1080.0	 63.4	 825.0	 -825.0	 1.04097	 1876.0	 1	 1650.0	 1080.0	 0.0	 0.0	 0.0	 0.0	 0.0	 0.0	 0.0	 0.0	 0.0	 0.0	 0.0; % COW
	10126	 424.8	 -432.6	 325.0	 -325.0	 1.00802	 786.0	 1	 649.0	 424.8	 0.0	 0.0	 0.0	 0.0	 0.0	 0.0	 0.0	 0.0	 0.0	 0.0	 0.0; % COW
	10129	 1656.0	 -432.6	 1265.0	 -1265.0	 1.04538	 2974.0	 1	 2530.0	 1656.0	 0.0	 0.0	 0.0	 0.0	 0.0	 0.0	 0.0	 0.0	 0.0	 0.0	 0.0; % COW
	10132	 583.2	 -91.0	 446.0	 -446.0	 1.02908	 1014.0	 1	 891.0	 583.2	 0.0	 0.0	 0.0	 0.0	 0.0	 0.0	 0.0	 0.0	 0.0	 0.0	 0.0; % COW
	10139	 648.0	 -206.7	 495.0	 -495.0	 1.03742	 1143.0	 1	 990.0	 648.0	 0.0	 0.0	 0.0	 0.0	 0.0	 0.0	 0.0	 0.0	 0.0	 0.0	 0.0; % COW
	10140	 972.0	 -194.4	 743.0	 -743.0	 1.03856	 1705.0	 1	 1485.0	 972.0	 0.0	 0.0	 0.0	 0.0	 0.0	 0.0	 0.0	 0.0	 0.0	 0.0	 0.0; % COW
	10141	 1224.0	 -437.3	 935.0	 -935.0	 1.01264	 2125.0	 1	 1870.0	 1224.0	 0.0	 0.0	 0.0	 0.0	 0.0	 0.0	 0.0	 0.0	 0.0	 0.0	 0.0; % COW
	10146	 115.2	 -176.7	 88.0	 -88.0	 1.04296	 224.0	 1	 176.0	 115.2	 0.0	 0.0	 0.0	 0.0	 0.0	 0.0	 0.0	 0.0	 0.0	 0.0	 0.0; % NG
	10150	 201.6	 10.8	 154.0	 -154.0	 1.04015	 427.0	 1	 308.0	 201.6	 0.0	 0.0	 0.0	 0.0	 0.0	 0.0	 0.0	 0.0	 0.0	 0.0	 0.0; % COW
	10171	 84.6	 -9949.0	 65.0	 -65.0	 1.02955	 715.0	 1	 129.3	 84.6	 0.0	 0.0	 0.0	 0.0	 0.0	 0.0	 0.0	 0.0	 0.0	 0.0	 0.0; % NG
	10176	 191.0	 283.3	 146.0	 -146.0	 1.02979	 346.0	 1	 291.8	 191.0	 0.0	 0.0	 0.0	 0.0	 0.0	 0.0	 0.0	 0.0	 0.0	 0.0	 0.0; % COW
	10177	 191.0	 283.3	 146.0	 -146.0	 1.02979	 346.0	 1	 291.8	 191.0	 0.0	 0.0	 0.0	 0.0	 0.0	 0.0	 0.0	 0.0	 0.0	 0.0	 0.0; % NG
	10186	 342.7	 27.1	 268.0	 -268.0	 1.08932	 618.0	 1	 534.6	 342.7	 0.0	 0.0	 0.0	 0.0	 0.0	 0.0	 0.0	 0.0	 0.0	 0.0	 0.0; % COW
	10187	 342.7	 27.2	 268.0	 -268.0	 1.0894	 618.0	 1	 534.6	 342.7	 0.0	 0.0	 0.0	 0.0	 0.0	 0.0	 0.0	 0.0	 0.0	 0.0	 0.0; % COW
	10188	 347.8	 -76.3	 266.0	 -266.0	 1.04594	 618.0	 1	 531.3	 347.8	 0.0	 0.0	 0.0	 0.0	 0.0	 0.0	 0.0	 0.0	 0.0	 0.0	 0.0; % COW
	10189	 283.0	 -60.7	 272.0	 -272.0	 1.04556	 620.0	 1	 542.3	 283.0	 0.0	 0.0	 0.0	 0.0	 0.0	 0.0	 0.0	 0.0	 0.0	 0.0	 0.0; % COW
	10190	 371.5	 -14.2	 301.0	 -301.0	 1.04288	 683.0	 1	 600.6	 371.5	 0.0	 0.0	 0.0	 0.0	 0.0	 0.0	 0.0	 0.0	 0.0	 0.0	 0.0; % NG
	10191	 370.8	 -13.7	 300.0	 -300.0	 1.04288	 682.0	 1	 599.5	 370.8	 0.0	 0.0	 0.0	 0.0	 0.0	 0.0	 0.0	 0.0	 0.0	 0.0	 0.0; % COW
	10192	 111.6	 19.1	 124.0	 -124.0	 1.04073	 281.0	 1	 247.5	 111.6	 0.0	 0.0	 0.0	 0.0	 0.0	 0.0	 0.0	 0.0	 0.0	 0.0	 0.0; % NG
	10194	 64.8	 -85.2	 72.0	 -72.0	 1.03584	 184.0	 1	 143.0	 64.8	 0.0	 0.0	 0.0	 0.0	 0.0	 0.0	 0.0	 0.0	 0.0	 0.0	 0.0; % NG
	10196	 108.0	 -46.1	 83.0	 -83.0	 1.04091	 215.0	 1	 165.0	 108.0	 0.0	 0.0	 0.0	 0.0	 0.0	 0.0	 0.0	 0.0	 0.0	 0.0	 0.0; % NG
	10223	 125.5	 190.8	 63.0	 -63.0	 1.04073	 189.0	 1	 125.5	 0.0	 0.0	 0.0	 0.0	 0.0	 0.0	 0.0	 0.0	 0.0	 0.0	 0.0	 0.0; % COW
	10225	 77.8	 131.8	 137.0	 -137.0	 1.06248	 333.0	 1	 272.8	 77.8	 0.0	 0.0	 0.0	 0.0	 0.0	 0.0	 0.0	 0.0	 0.0	 0.0	 0.0; % NG
	10226	 34.6	 97.3	 71.0	 -71.0	 1.06441	 198.0	 1	 140.8	 34.6	 0.0	 0.0	 0.0	 0.0	 0.0	 0.0	 0.0	 0.0	 0.0	 0.0	 0.0; % NG
	10227	 11.5	 71.5	 9.0	 -9.0	 1.10423	 191.0	 1	 17.6	 11.5	 0.0	 0.0	 0.0	 0.0	 0.0	 0.0	 0.0	 0.0	 0.0	 0.0	 0.0; % NG
	10228	 18.7	 146.1	 15.0	 -15.0	 1.06247	 135.0	 1	 28.6	 18.7	 0.0	 0.0	 0.0	 0.0	 0.0	 0.0	 0.0	 0.0	 0.0	 0.0	 0.0; % NG
	10229	 39.6	 24.8	 31.0	 -31.0	 1.06902	 85.0	 1	 60.5	 39.6	 0.0	 0.0	 0.0	 0.0	 0.0	 0.0	 0.0	 0.0	 0.0	 0.0	 0.0; % NG
	10230	 0.0	 18.2	 1.0	 -1.0	 1.07323	 132.0	 1	 0.1	 0.0	 0.0	 0.0	 0.0	 0.0	 0.0	 0.0	 0.0	 0.0	 0.0	 0.0	 0.0; % NG
	10232	 11.2	 36.3	 9.0	 -9.0	 1.01987	 64.0	 1	 17.2	 11.2	 0.0	 0.0	 0.0	 0.0	 0.0	 0.0	 0.0	 0.0	 0.0	 0.0	 0.0; % PEL
	10233	 45.4	 68.4	 35.0	 -35.0	 1.04665	 79.0	 1	 69.3	 45.4	 0.0	 0.0	 0.0	 0.0	 0.0	 0.0	 0.0	 0.0	 0.0	 0.0	 0.0; % PEL
	10234	 3.6	 205.6	 3.0	 -3.0	 1.09129	 115.0	 1	 5.5	 3.6	 0.0	 0.0	 0.0	 0.0	 0.0	 0.0	 0.0	 0.0	 0.0	 0.0	 0.0; % NG
	10235	 28.8	 18.1	 22.0	 -22.0	 1.08091	 83.0	 1	 44.0	 28.8	 0.0	 0.0	 0.0	 0.0	 0.0	 0.0	 0.0	 0.0	 0.0	 0.0	 0.0; % PEL
	10236	 119.5	 37.8	 92.0	 -92.0	 1.07896	 219.0	 1	 182.6	 119.5	 0.0	 0.0	 0.0	 0.0	 0.0	 0.0	 0.0	 0.0	 0.0	 0.0	 0.0; % NG
	10237	 50.4	 132.0	 39.0	 -39.0	 1.08023	 121.0	 1	 77.0	 50.4	 0.0	 0.0	 0.0	 0.0	 0.0	 0.0	 0.0	 0.0	 0.0	 0.0	 0.0; % PEL
	10238	 61.9	 122.2	 48.0	 -48.0	 1.00809	 179.0	 1	 94.6	 61.9	 0.0	 0.0	 0.0	 0.0	 0.0	 0.0	 0.0	 0.0	 0.0	 0.0	 0.0; % PEL
	10239	 62.6	 39.5	 48.0	 -48.0	 1.06246	 109.0	 1	 95.7	 62.6	 0.0	 0.0	 0.0	 0.0	 0.0	 0.0	 0.0	 0.0	 0.0	 0.0	 0.0; % NG
	10240	 0.0	 11.5	 1.0	 -1.0	 1.0666	 128.0	 1	 0.1	 0.0	 0.0	 0.0	 0.0	 0.0	 0.0	 0.0	 0.0	 0.0	 0.0	 0.0	 0.0; % NG
	10246	 146.2	 -49.3	 112.0	 -112.0	 1.03917	 262.0	 1	 223.3	 146.2	 0.0	 0.0	 0.0	 0.0	 0.0	 0.0	 0.0	 0.0	 0.0	 0.0	 0.0; % NG
	10247	 102.2	 -1.7	 79.0	 -79.0	 1.12	 215.0	 1	 156.2	 102.2	 0.0	 0.0	 0.0	 0.0	 0.0	 0.0	 0.0	 0.0	 0.0	 0.0	 0.0; % NG
	10248	 122.4	 6.2	 94.0	 -94.0	 1.12	 241.0	 1	 187.0	 122.4	 0.0	 0.0	 0.0	 0.0	 0.0	 0.0	 0.0	 0.0	 0.0	 0.0	 0.0; % NG
	10249	 128.0	 -23.9	 98.0	 -98.0	 1.00179	 225.0	 1	 195.6	 128.0	 0.0	 0.0	 0.0	 0.0	 0.0	 0.0	 0.0	 0.0	 0.0	 0.0	 0.0; % NG
	10250	 374.4	 -1.1	 286.0	 -286.0	 1.0404	 650.0	 1	 572.0	 374.4	 0.0	 0.0	 0.0	 0.0	 0.0	 0.0	 0.0	 0.0	 0.0	 0.0	 0.0; % NG
	10251	 374.4	 -2.6	 286.0	 -286.0	 1.03995	 650.0	 1	 572.0	 374.4	 0.0	 0.0	 0.0	 0.0	 0.0	 0.0	 0.0	 0.0	 0.0	 0.0	 0.0; % COW
	10252	 374.4	 -2.5	 286.0	 -286.0	 1.03994	 650.0	 1	 572.0	 374.4	 0.0	 0.0	 0.0	 0.0	 0.0	 0.0	 0.0	 0.0	 0.0	 0.0	 0.0; % NG
	10253	 187.9	 33.5	 144.0	 -144.0	 1.01534	 341.0	 1	 287.1	 187.9	 0.0	 0.0	 0.0	 0.0	 0.0	 0.0	 0.0	 0.0	 0.0	 0.0	 0.0; % NG
	10254	 342.7	 30.5	 262.0	 -262.0	 1.04999	 598.0	 1	 523.6	 342.7	 0.0	 0.0	 0.0	 0.0	 0.0	 0.0	 0.0	 0.0	 0.0	 0.0	 0.0; % COW
	10255	 121.0	 5.4	 93.0	 -93.0	 1.03994	 210.0	 1	 184.8	 121.0	 0.0	 0.0	 0.0	 0.0	 0.0	 0.0	 0.0	 0.0	 0.0	 0.0	 0.0; % NG
	10256	 280.8	 31.7	 215.0	 -215.0	 1.11998	 489.0	 1	 429.0	 280.8	 0.0	 0.0	 0.0	 0.0	 0.0	 0.0	 0.0	 0.0	 0.0	 0.0	 0.0; % NG
	10257	 140.4	 16.3	 108.0	 -108.0	 1.11817	 250.0	 1	 214.5	 140.4	 0.0	 0.0	 0.0	 0.0	 0.0	 0.0	 0.0	 0.0	 0.0	 0.0	 0.0; % NG
	10258	 129.6	 -3.0	 99.0	 -99.0	 1.10518	 230.0	 1	 198.0	 129.6	 0.0	 0.0	 0.0	 0.0	 0.0	 0.0	 0.0	 0.0	 0.0	 0.0	 0.0; % NG
	10259	 283.7	 8.0	 217.0	 -217.0	 0.98182	 519.0	 1	 433.4	 283.7	 0.0	 0.0	 0.0	 0.0	 0.0	 0.0	 0.0	 0.0	 0.0	 0.0	 0.0; % NG
	10260	 425.5	 9.2	 326.0	 -326.0	 1.10941	 741.0	 1	 650.1	 425.5	 0.0	 0.0	 0.0	 0.0	 0.0	 0.0	 0.0	 0.0	 0.0	 0.0	 0.0; % COW
	10261	 579.6	 15.8	 476.0	 -476.0	 0.99592	 1100.0	 1	 951.5	 579.6	 0.0	 0.0	 0.0	 0.0	 0.0	 0.0	 0.0	 0.0	 0.0	 0.0	 0.0; % COW
	10262	 579.6	 15.9	 476.0	 -476.0	 0.99592	 1100.0	 1	 951.5	 579.6	 0.0	 0.0	 0.0	 0.0	 0.0	 0.0	 0.0	 0.0	 0.0	 0.0	 0.0; % NG
	10263	 67.7	 7.8	 52.0	 -52.0	 1.09219	 121.0	 1	 103.4	 67.7	 0.0	 0.0	 0.0	 0.0	 0.0	 0.0	 0.0	 0.0	 0.0	 0.0	 0.0; % NG
	10264	 280.8	 -4.2	 215.0	 -215.0	 1.00552	 489.0	 1	 429.0	 280.8	 0.0	 0.0	 0.0	 0.0	 0.0	 0.0	 0.0	 0.0	 0.0	 0.0	 0.0; % COW
	10265	 280.8	 -7.2	 215.0	 -215.0	 1.10573	 496.0	 1	 429.0	 280.8	 0.0	 0.0	 0.0	 0.0	 0.0	 0.0	 0.0	 0.0	 0.0	 0.0	 0.0; % NG
	10266	 3.6	 -8.1	 3.0	 -3.0	 1.04403	 72.0	 1	 5.5	 3.6	 0.0	 0.0	 0.0	 0.0	 0.0	 0.0	 0.0	 0.0	 0.0	 0.0	 0.0; % NG
	10267	 4.3	 43.3	 4.0	 -4.0	 1.08131	 120.0	 1	 6.6	 4.3	 0.0	 0.0	 0.0	 0.0	 0.0	 0.0	 0.0	 0.0	 0.0	 0.0	 0.0; % NG
	10268	 20.9	 15.8	 16.0	 -16.0	 1.06395	 37.0	 1	 31.9	 20.9	 0.0	 0.0	 0.0	 0.0	 0.0	 0.0	 0.0	 0.0	 0.0	 0.0	 0.0; % PEL
	10269	 68.4	 127.9	 146.0	 -146.0	 1.07428	 338.0	 1	 291.5	 68.4	 0.0	 0.0	 0.0	 0.0	 0.0	 0.0	 0.0	 0.0	 0.0	 0.0	 0.0; % NG
	10270	 0.0	 24.4	 1.0	 -1.0	 1.05973	 40.0	 1	 0.1	 0.0	 0.0	 0.0	 0.0	 0.0	 0.0	 0.0	 0.0	 0.0	 0.0	 0.0	 0.0; % NG
	10271	 156.2	 71.4	 120.0	 -120.0	 1.06494	 286.0	 1	 238.7	 156.2	 0.0	 0.0	 0.0	 0.0	 0.0	 0.0	 0.0	 0.0	 0.0	 0.0	 0.0; % NG
	10272	 24.5	 16.2	 19.0	 -19.0	 1.072	 116.0	 1	 37.4	 24.5	 0.0	 0.0	 0.0	 0.0	 0.0	 0.0	 0.0	 0.0	 0.0	 0.0	 0.0; % NG
	10273	 165.6	 83.2	 127.0	 -127.0	 1.02431	 321.0	 1	 253.0	 165.6	 0.0	 0.0	 0.0	 0.0	 0.0	 0.0	 0.0	 0.0	 0.0	 0.0	 0.0; % NG
	10274	 61.2	 118.3	 113.0	 -113.0	 1.06504	 317.0	 1	 225.5	 61.2	 0.0	 0.0	 0.0	 0.0	 0.0	 0.0	 0.0	 0.0	 0.0	 0.0	 0.0; % NG
	10275	 21.6	 5.4	 55.0	 -55.0	 1.06182	 125.0	 1	 110.0	 21.6	 0.0	 0.0	 0.0	 0.0	 0.0	 0.0	 0.0	 0.0	 0.0	 0.0	 0.0; % COW
	10276	 107.3	 19.9	 82.0	 -82.0	 1.06034	 189.0	 1	 163.9	 107.3	 0.0	 0.0	 0.0	 0.0	 0.0	 0.0	 0.0	 0.0	 0.0	 0.0	 0.0; % COW
	10277	 80.6	 60.0	 62.0	 -62.0	 1.06264	 225.0	 1	 123.2	 80.6	 0.0	 0.0	 0.0	 0.0	 0.0	 0.0	 0.0	 0.0	 0.0	 0.0	 0.0; % NG
	10278	 129.6	 18.8	 99.0	 -99.0	 1.11356	 233.0	 1	 198.0	 129.6	 0.0	 0.0	 0.0	 0.0	 0.0	 0.0	 0.0	 0.0	 0.0	 0.0	 0.0; % NG
	10279	 129.6	 18.8	 99.0	 -99.0	 1.11356	 233.0	 1	 198.0	 129.6	 0.0	 0.0	 0.0	 0.0	 0.0	 0.0	 0.0	 0.0	 0.0	 0.0	 0.0; % NG
	10281	 2.9	 25.3	 3.0	 -3.0	 1.07868	 20.0	 1	 4.4	 2.9	 0.0	 0.0	 0.0	 0.0	 0.0	 0.0	 0.0	 0.0	 0.0	 0.0	 0.0; % PEL
	10282	 58.3	 143.8	 144.0	 -144.0	 1.06767	 357.0	 1	 287.1	 58.3	 0.0	 0.0	 0.0	 0.0	 0.0	 0.0	 0.0	 0.0	 0.0	 0.0	 0.0; % NG
	10284	 418.3	 179.0	 386.0	 -386.0	 1.12	 919.0	 1	 771.1	 418.3	 0.0	 0.0	 0.0	 0.0	 0.0	 0.0	 0.0	 0.0	 0.0	 0.0	 0.0; % COW
	10285	 0.0	 -21.9	 1.0	 -1.0	 1.0574	 132.0	 1	 0.1	 0.0	 0.0	 0.0	 0.0	 0.0	 0.0	 0.0	 0.0	 0.0	 0.0	 0.0	 0.0; % PEL
	10288	 20.9	 -26.5	 16.0	 -16.0	 1.03369	 63.0	 1	 31.9	 20.9	 0.0	 0.0	 0.0	 0.0	 0.0	 0.0	 0.0	 0.0	 0.0	 0.0	 0.0; % COW
	10289	 0.7	 -25.0	 18.0	 -18.0	 1.05256	 41.0	 1	 34.1	 0.7	 0.0	 0.0	 0.0	 0.0	 0.0	 0.0	 0.0	 0.0	 0.0	 0.0	 0.0; % COW
	10290	 28.1	 27.1	 22.0	 -22.0	 1.06119	 49.0	 1	 42.9	 28.1	 0.0	 0.0	 0.0	 0.0	 0.0	 0.0	 0.0	 0.0	 0.0	 0.0	 0.0; % NG
	10291	 5.8	 48.9	 5.0	 -5.0	 1.08362	 71.0	 1	 8.8	 5.8	 0.0	 0.0	 0.0	 0.0	 0.0	 0.0	 0.0	 0.0	 0.0	 0.0	 0.0; % COW
	10292	 312.5	 164.1	 239.0	 -239.0	 1.08678	 638.0	 1	 477.4	 312.5	 0.0	 0.0	 0.0	 0.0	 0.0	 0.0	 0.0	 0.0	 0.0	 0.0	 0.0; % NG
	10293	 19.4	 20.3	 15.0	 -15.0	 1.07356	 46.0	 1	 29.7	 19.4	 0.0	 0.0	 0.0	 0.0	 0.0	 0.0	 0.0	 0.0	 0.0	 0.0	 0.0; % NG
	10294	 7.9	 33.2	 7.0	 -7.0	 1.08819	 74.0	 1	 12.1	 7.9	 0.0	 0.0	 0.0	 0.0	 0.0	 0.0	 0.0	 0.0	 0.0	 0.0	 0.0; % PEL
	10295	 151.9	 124.2	 117.0	 -117.0	 0.99474	 299.0	 1	 232.1	 151.9	 0.0	 0.0	 0.0	 0.0	 0.0	 0.0	 0.0	 0.0	 0.0	 0.0	 0.0; % NG
	10296	 197.3	 132.4	 151.0	 -151.0	 1.08634	 461.0	 1	 301.4	 197.3	 0.0	 0.0	 0.0	 0.0	 0.0	 0.0	 0.0	 0.0	 0.0	 0.0	 0.0; % NG
	24	 110.0	 89.2	 111.0	 -49.0	 1.07767	 235.3	 1	 221.0	 110.0	 0.0	 0.0	 0.0	 0.0	 0.0	 0.0	 0.0	 0.0	 0.0	 0.0	 0.0; % NG
	25	 135.0	 -22.0	 100.0	 -22.0	 1.0776	 235.3	 1	 200.0	 135.0	 0.0	 0.0	 0.0	 0.0	 0.0	 0.0	 0.0	 0.0	 0.0	 0.0	 0.0; % NG
	37	 370.0	 169.3	 185.0	 -19.0	 1.11	 426.0	 1	 370.0	 240.0	 0.0	 0.0	 0.0	 0.0	 0.0	 0.0	 0.0	 0.0	 0.0	 0.0	 0.0; % NG
	37	 370.0	 -19.0	 185.0	 -19.0	 1.11	 426.0	 1	 370.0	 240.0	 0.0	 0.0	 0.0	 0.0	 0.0	 0.0	 0.0	 0.0	 0.0	 0.0	 0.0; % NG
	38	 370.0	 34.1	 185.0	 -19.0	 1.11	 426.0	 1	 370.0	 240.0	 0.0	 0.0	 0.0	 0.0	 0.0	 0.0	 0.0	 0.0	 0.0	 0.0	 0.0; % NG
	38	 370.0	 2.3	 185.0	 -19.0	 1.11	 426.0	 1	 370.0	 240.0	 0.0	 0.0	 0.0	 0.0	 0.0	 0.0	 0.0	 0.0	 0.0	 0.0	 0.0; % NG
	39	 370.0	 94.4	 185.0	 -19.0	 1.11	 426.0	 1	 370.0	 240.0	 0.0	 0.0	 0.0	 0.0	 0.0	 0.0	 0.0	 0.0	 0.0	 0.0	 0.0; % NG
	40	 370.0	 190.0	 185.0	 -19.0	 1.04756	 426.0	 1	 370.0	 240.0	 0.0	 0.0	 0.0	 0.0	 0.0	 0.0	 0.0	 0.0	 0.0	 0.0	 0.0; % COW
	40	 370.0	 -19.0	 185.0	 -19.0	 1.04756	 426.0	 1	 370.0	 240.0	 0.0	 0.0	 0.0	 0.0	 0.0	 0.0	 0.0	 0.0	 0.0	 0.0	 0.0; % COW
	40	 370.0	 -19.0	 185.0	 -19.0	 1.04756	 426.0	 1	 370.0	 240.0	 0.0	 0.0	 0.0	 0.0	 0.0	 0.0	 0.0	 0.0	 0.0	 0.0	 0.0; % COW
	41	 370.0	 -0.1	 185.0	 -19.0	 1.04755	 426.0	 1	 370.0	 240.0	 0.0	 0.0	 0.0	 0.0	 0.0	 0.0	 0.0	 0.0	 0.0	 0.0	 0.0; % NG
	41	 370.0	 -0.6	 185.0	 -19.0	 1.04755	 426.0	 1	 370.0	 240.0	 0.0	 0.0	 0.0	 0.0	 0.0	 0.0	 0.0	 0.0	 0.0	 0.0	 0.0; % NG
	41	 370.0	 -0.6	 185.0	 -19.0	 1.04755	 426.0	 1	 370.0	 240.0	 0.0	 0.0	 0.0	 0.0	 0.0	 0.0	 0.0	 0.0	 0.0	 0.0	 0.0; % COW
	57	 110.0	 37.2	 108.0	 -33.0	 1.10991	 235.0	 1	 215.0	 110.0	 0.0	 0.0	 0.0	 0.0	 0.0	 0.0	 0.0	 0.0	 0.0	 0.0	 0.0; % NG
	57	 171.6	 152.0	 110.0	 -33.0	 1.10991	 235.0	 1	 220.0	 125.0	 0.0	 0.0	 0.0	 0.0	 0.0	 0.0	 0.0	 0.0	 0.0	 0.0	 0.0; % NG
	58	 125.0	 149.0	 113.0	 -33.0	 1.1097	 235.0	 1	 225.0	 125.0	 0.0	 0.0	 0.0	 0.0	 0.0	 0.0	 0.0	 0.0	 0.0	 0.0	 0.0; % NG
	58	 0.0	 0.0	 113.0	 -33.0	 1.0	 235.0	 0	 225.0	 120.0	 0.0	 0.0	 0.0	 0.0	 0.0	 0.0	 0.0	 0.0	 0.0	 0.0	 0.0; % NG
	58	 110.0	 -33.0	 113.0	 -33.0	 1.1097	 235.0	 1	 225.0	 110.0	 0.0	 0.0	 0.0	 0.0	 0.0	 0.0	 0.0	 0.0	 0.0	 0.0	 0.0; % NG
	59	 225.0	 149.0	 113.0	 -33.0	 1.11	 235.0	 1	 225.0	 110.0	 0.0	 0.0	 0.0	 0.0	 0.0	 0.0	 0.0	 0.0	 0.0	 0.0	 0.0; % NG
	60	 535.0	 305.9	 268.0	 -47.0	 1.05	 588.0	 1	 535.0	 255.0	 0.0	 0.0	 0.0	 0.0	 0.0	 0.0	 0.0	 0.0	 0.0	 0.0	 0.0; % NG
	61	 278.8	 -100.0	 280.0	 -100.0	 1.04992	 588.0	 1	 560.0	 250.0	 0.0	 0.0	 0.0	 0.0	 0.0	 0.0	 0.0	 0.0	 0.0	 0.0	 0.0; % COW
	70	 129.0	 -11.0	 105.0	 -11.0	 1.10739	 235.0	 1	 225.0	 129.0	 0.0	 0.0	 0.0	 0.0	 0.0	 0.0	 0.0	 0.0	 0.0	 0.0	 0.0; % NG
	71	 129.0	 59.0	 105.0	 -11.0	 1.10739	 235.0	 1	 225.0	 129.0	 0.0	 0.0	 0.0	 0.0	 0.0	 0.0	 0.0	 0.0	 0.0	 0.0	 0.0; % NG
	71	 0.0	 0.0	 99.0	 -10.0	 1.0	 235.0	 0	 225.0	 129.0	 0.0	 0.0	 0.0	 0.0	 0.0	 0.0	 0.0	 0.0	 0.0	 0.0	 0.0; % NG
	72	 0.0	 0.0	 105.0	 -11.0	 1.0	 235.0	 0	 225.0	 129.0	 0.0	 0.0	 0.0	 0.0	 0.0	 0.0	 0.0	 0.0	 0.0	 0.0	 0.0; % NG
	72	 129.0	 -11.0	 105.0	 -11.0	 1.04287	 235.0	 1	 225.0	 129.0	 0.0	 0.0	 0.0	 0.0	 0.0	 0.0	 0.0	 0.0	 0.0	 0.0	 0.0; % NG
	73	 129.0	 -10.0	 99.0	 -10.0	 1.0429	 235.0	 1	 225.0	 129.0	 0.0	 0.0	 0.0	 0.0	 0.0	 0.0	 0.0	 0.0	 0.0	 0.0	 0.0; % NG
	73	 129.0	 -11.0	 105.0	 -11.0	 1.0429	 235.0	 1	 225.0	 129.0	 0.0	 0.0	 0.0	 0.0	 0.0	 0.0	 0.0	 0.0	 0.0	 0.0	 0.0; % NG
	74	 112.0	 60.0	 56.0	 0.0	 1.1043	 120.0	 1	 112.0	 0.0	 0.0	 0.0	 0.0	 0.0	 0.0	 0.0	 0.0	 0.0	 0.0	 0.0	 0.0; % COW
	94	 220.0	 131.0	 110.0	 -6.0	 1.10247	 270.6	 1	 220.0	 125.0	 0.0	 0.0	 0.0	 0.0	 0.0	 0.0	 0.0	 0.0	 0.0	 0.0	 0.0; % COW
	94	 225.0	 97.3	 113.0	 -6.0	 1.10247	 270.6	 1	 225.0	 140.0	 0.0	 0.0	 0.0	 0.0	 0.0	 0.0	 0.0	 0.0	 0.0	 0.0	 0.0; % COW
	95	 225.0	 131.0	 113.0	 -6.0	 1.10442	 270.6	 1	 225.0	 130.0	 0.0	 0.0	 0.0	 0.0	 0.0	 0.0	 0.0	 0.0	 0.0	 0.0	 0.0; % NG
	95	 225.0	 131.0	 113.0	 -6.0	 1.10442	 270.6	 1	 225.0	 125.0	 0.0	 0.0	 0.0	 0.0	 0.0	 0.0	 0.0	 0.0	 0.0	 0.0	 0.0; % NG
	95	 225.0	 -4.4	 113.0	 -6.0	 1.10442	 270.6	 1	 225.0	 130.0	 0.0	 0.0	 0.0	 0.0	 0.0	 0.0	 0.0	 0.0	 0.0	 0.0	 0.0; % COW
	98	 383.0	 35.2	 192.0	 -31.0	 1.05	 426.0	 1	 383.0	 220.0	 0.0	 0.0	 0.0	 0.0	 0.0	 0.0	 0.0	 0.0	 0.0	 0.0	 0.0; % NG
	98	 380.0	 -14.8	 119.0	 -31.0	 1.05	 435.3	 1	 380.0	 220.0	 0.0	 0.0	 0.0	 0.0	 0.0	 0.0	 0.0	 0.0	 0.0	 0.0	 0.0; % NG
	115	 12.0	 0.0	 0.0	 0.0	 1.09646	 12.0	 1	 12.0	 0.0	 0.0	 0.0	 0.0	 0.0	 0.0	 0.0	 0.0	 0.0	 0.0	 0.0	 0.0; % NG
	115	 6.0	 0.0	 0.0	 0.0	 1.09646	 6.0	 1	 6.0	 0.0	 0.0	 0.0	 0.0	 0.0	 0.0	 0.0	 0.0	 0.0	 0.0	 0.0	 0.0; % NG
	121	 0.0	 0.0	 113.0	 -10.0	 1.0	 270.6	 0	 225.0	 120.0	 0.0	 0.0	 0.0	 0.0	 0.0	 0.0	 0.0	 0.0	 0.0	 0.0	 0.0; % NG
	122	 225.0	 120.0	 113.0	 -10.0	 1.10922	 270.6	 1	 225.0	 120.0	 0.0	 0.0	 0.0	 0.0	 0.0	 0.0	 0.0	 0.0	 0.0	 0.0	 0.0; % NG
	123	 120.0	 5.3	 60.0	 -1.0	 1.10624	 150.0	 1	 120.0	 70.0	 0.0	 0.0	 0.0	 0.0	 0.0	 0.0	 0.0	 0.0	 0.0	 0.0	 0.0; % NG
	124	 120.0	 73.0	 60.0	 -1.0	 1.10639	 150.0	 1	 120.0	 70.0	 0.0	 0.0	 0.0	 0.0	 0.0	 0.0	 0.0	 0.0	 0.0	 0.0	 0.0; % NG
	134	 0.0	 0.0	 60.0	 0.0	 1.0	 150.0	 0	 120.0	 70.0	 0.0	 0.0	 0.0	 0.0	 0.0	 0.0	 0.0	 0.0	 0.0	 0.0	 0.0; % COW
	135	 120.0	 80.0	 60.0	 0.0	 1.09923	 150.0	 1	 120.0	 70.0	 0.0	 0.0	 0.0	 0.0	 0.0	 0.0	 0.0	 0.0	 0.0	 0.0	 0.0; % NG
	136	 80.0	 31.0	 31.0	 0.0	 1.07793	 117.5	 1	 110.0	 80.0	 0.0	 0.0	 0.0	 0.0	 0.0	 0.0	 0.0	 0.0	 0.0	 0.0	 0.0; % COW
	144	 215.0	 64.7	 108.0	 -35.0	 1.10999	 270.6	 1	 215.0	 135.0	 0.0	 0.0	 0.0	 0.0	 0.0	 0.0	 0.0	 0.0	 0.0	 0.0	 0.0; % NG
	145	 215.0	 -35.0	 108.0	 -35.0	 1.11	 270.6	 1	 215.0	 135.0	 0.0	 0.0	 0.0	 0.0	 0.0	 0.0	 0.0	 0.0	 0.0	 0.0	 0.0; % NG
	145	 225.0	 140.0	 113.0	 -35.0	 1.11	 270.6	 1	 225.0	 135.0	 0.0	 0.0	 0.0	 0.0	 0.0	 0.0	 0.0	 0.0	 0.0	 0.0	 0.0; % NG
	146	 225.0	 -34.1	 113.0	 -36.0	 1.04293	 270.6	 1	 225.0	 135.0	 0.0	 0.0	 0.0	 0.0	 0.0	 0.0	 0.0	 0.0	 0.0	 0.0	 0.0; % COW
	146	 220.0	 -34.1	 110.0	 -36.0	 1.04293	 270.6	 1	 220.0	 135.0	 0.0	 0.0	 0.0	 0.0	 0.0	 0.0	 0.0	 0.0	 0.0	 0.0	 0.0; % NG
	152	 0.0	 0.0	 68.0	 -29.0	 1.0	 150.0	 0	 135.0	 -135.0	 0.0	 0.0	 0.0	 0.0	 0.0	 0.0	 0.0	 0.0	 0.0	 0.0	 0.0; % COW
	152	 0.0	 0.0	 68.0	 -29.0	 1.0	 150.0	 0	 135.0	 -135.0	 0.0	 0.0	 0.0	 0.0	 0.0	 0.0	 0.0	 0.0	 0.0	 0.0	 0.0; % COW
	153	 0.0	 0.0	 68.0	 -29.0	 1.0	 150.0	 0	 135.0	 -135.0	 0.0	 0.0	 0.0	 0.0	 0.0	 0.0	 0.0	 0.0	 0.0	 0.0	 0.0; % NG
	153	 0.0	 0.0	 68.0	 -29.0	 1.0	 150.0	 0	 135.0	 -135.0	 0.0	 0.0	 0.0	 0.0	 0.0	 0.0	 0.0	 0.0	 0.0	 0.0	 0.0; % COW
	154	 120.0	 85.0	 60.0	 -15.0	 1.0916	 150.0	 1	 120.0	 94.0	 0.0	 0.0	 0.0	 0.0	 0.0	 0.0	 0.0	 0.0	 0.0	 0.0	 0.0; % NG
	155	 120.0	 85.0	 60.0	 -15.0	 1.0916	 150.0	 1	 120.0	 94.0	 0.0	 0.0	 0.0	 0.0	 0.0	 0.0	 0.0	 0.0	 0.0	 0.0	 0.0; % NG
	155	 0.0	 0.0	 60.0	 -15.0	 1.0	 150.0	 0	 120.0	 94.0	 0.0	 0.0	 0.0	 0.0	 0.0	 0.0	 0.0	 0.0	 0.0	 0.0	 0.0; % NG
	169	 0.0	 0.0	 25.0	 0.0	 1.0	 51.4	 0	 50.0	 40.0	 0.0	 0.0	 0.0	 0.0	 0.0	 0.0	 0.0	 0.0	 0.0	 0.0	 0.0; % NG
	170	 0.0	 0.0	 60.0	 -15.0	 1.0	 150.0	 0	 120.0	 80.0	 0.0	 0.0	 0.0	 0.0	 0.0	 0.0	 0.0	 0.0	 0.0	 0.0	 0.0; % PEL
	170	 0.0	 0.0	 25.0	 0.0	 1.0	 51.4	 0	 50.0	 45.0	 0.0	 0.0	 0.0	 0.0	 0.0	 0.0	 0.0	 0.0	 0.0	 0.0	 0.0; % NG
	172	 100.0	 119.0	 116.0	 -31.0	 1.06808	 252.4	 1	 232.0	 100.0	 0.0	 0.0	 0.0	 0.0	 0.0	 0.0	 0.0	 0.0	 0.0	 0.0	 0.0; % NG
	172	 0.0	 0.0	 103.0	 -21.0	 1.0	 237.5	 0	 205.0	 135.0	 0.0	 0.0	 0.0	 0.0	 0.0	 0.0	 0.0	 0.0	 0.0	 0.0	 0.0; % NG
	173	 0.0	 0.0	 103.0	 -21.0	 1.0	 237.5	 0	 205.0	 135.0	 0.0	 0.0	 0.0	 0.0	 0.0	 0.0	 0.0	 0.0	 0.0	 0.0	 0.0; % NG
	173	 0.0	 0.0	 102.0	 -15.0	 1.0	 252.4	 0	 222.0	 90.0	 0.0	 0.0	 0.0	 0.0	 0.0	 0.0	 0.0	 0.0	 0.0	 0.0	 0.0; % NG
	174	 90.0	 102.0	 102.0	 -15.0	 1.03111	 252.4	 1	 222.0	 90.0	 0.0	 0.0	 0.0	 0.0	 0.0	 0.0	 0.0	 0.0	 0.0	 0.0	 0.0; % NG
	175	 90.0	 46.7	 102.0	 -15.0	 1.03109	 252.4	 1	 222.0	 90.0	 0.0	 0.0	 0.0	 0.0	 0.0	 0.0	 0.0	 0.0	 0.0	 0.0	 0.0; % NG
	175	 100.0	 20.7	 93.0	 -10.0	 1.03109	 252.4	 1	 232.0	 100.0	 0.0	 0.0	 0.0	 0.0	 0.0	 0.0	 0.0	 0.0	 0.0	 0.0	 0.0; % COW
	180	 261.0	 66.1	 127.0	 -35.0	 1.11	 287.3	 1	 261.0	 104.0	 0.0	 0.0	 0.0	 0.0	 0.0	 0.0	 0.0	 0.0	 0.0	 0.0	 0.0; % COW
	180	 261.0	 127.0	 127.0	 -35.0	 1.11	 287.3	 1	 261.0	 104.0	 0.0	 0.0	 0.0	 0.0	 0.0	 0.0	 0.0	 0.0	 0.0	 0.0	 0.0; % COW
	181	 206.0	 99.0	 103.0	 -17.0	 1.11	 238.4	 1	 206.0	 120.0	 0.0	 0.0	 0.0	 0.0	 0.0	 0.0	 0.0	 0.0	 0.0	 0.0	 0.0; % NG
	181	 261.0	 123.0	 127.0	 -35.0	 1.11	 287.3	 1	 261.0	 104.0	 0.0	 0.0	 0.0	 0.0	 0.0	 0.0	 0.0	 0.0	 0.0	 0.0	 0.0; % NG
	182	 235.0	 -38.0	 118.0	 -38.0	 1.11	 263.9	 1	 235.0	 94.0	 0.0	 0.0	 0.0	 0.0	 0.0	 0.0	 0.0	 0.0	 0.0	 0.0	 0.0; % NG
	182	 235.0	 65.3	 118.0	 -38.0	 1.11	 263.9	 1	 235.0	 94.0	 0.0	 0.0	 0.0	 0.0	 0.0	 0.0	 0.0	 0.0	 0.0	 0.0	 0.0; % COW
	183	 206.0	 103.0	 103.0	 -17.0	 1.04854	 238.4	 1	 206.0	 120.0	 0.0	 0.0	 0.0	 0.0	 0.0	 0.0	 0.0	 0.0	 0.0	 0.0	 0.0; % NG
	183	 206.0	 103.0	 103.0	 -17.0	 1.04854	 238.4	 1	 206.0	 120.0	 0.0	 0.0	 0.0	 0.0	 0.0	 0.0	 0.0	 0.0	 0.0	 0.0	 0.0; % NG
	191	 200.0	 104.0	 100.0	 -23.0	 1.08579	 233.2	 1	 200.0	 150.0	 0.0	 0.0	 0.0	 0.0	 0.0	 0.0	 0.0	 0.0	 0.0	 0.0	 0.0; % COW
	192	 200.0	 104.0	 100.0	 -23.0	 1.08551	 233.2	 1	 200.0	 150.0	 0.0	 0.0	 0.0	 0.0	 0.0	 0.0	 0.0	 0.0	 0.0	 0.0	 0.0; % NG
	192	 0.0	 0.0	 100.0	 -23.0	 1.0	 233.2	 0	 200.0	 145.0	 0.0	 0.0	 0.0	 0.0	 0.0	 0.0	 0.0	 0.0	 0.0	 0.0	 0.0; % NG
	192	 0.0	 0.0	 100.0	 -23.0	 1.0	 233.2	 0	 200.0	 145.0	 0.0	 0.0	 0.0	 0.0	 0.0	 0.0	 0.0	 0.0	 0.0	 0.0	 0.0; % NG
	193	 464.0	 294.0	 232.0	 -232.0	 1.03481	 464.0	 1	 464.0	 208.0	 0.0	 0.0	 0.0	 0.0	 0.0	 0.0	 0.0	 0.0	 0.0	 0.0	 0.0; % NG
	208	 188.0	 100.0	 94.0	 0.0	 1.06766	 218.3	 1	 188.0	 76.0	 0.0	 0.0	 0.0	 0.0	 0.0	 0.0	 0.0	 0.0	 0.0	 0.0	 0.0; % NG
	240	 179.0	 -62.0	 90.0	 -62.0	 1.02448	 209.0	 1	 179.0	 -200.0	 0.0	 0.0	 0.0	 0.0	 0.0	 0.0	 0.0	 0.0	 0.0	 0.0	 0.0; % NG
	240	 179.0	 -62.0	 90.0	 -62.0	 1.02448	 209.0	 1	 179.0	 -200.0	 0.0	 0.0	 0.0	 0.0	 0.0	 0.0	 0.0	 0.0	 0.0	 0.0	 0.0; % NG
	240	 0.0	 0.0	 90.0	 -90.0	 1.0	 209.0	 0	 179.0	 -200.0	 0.0	 0.0	 0.0	 0.0	 0.0	 0.0	 0.0	 0.0	 0.0	 0.0	 0.0; % NG
	241	 179.0	 -12.1	 90.0	 -90.0	 1.02448	 209.0	 1	 179.0	 -200.0	 0.0	 0.0	 0.0	 0.0	 0.0	 0.0	 0.0	 0.0	 0.0	 0.0	 0.0; % NG
	244	 220.0	 11.6	 100.0	 0.0	 1.11	 177.1	 1	 220.0	 112.5	 0.0	 0.0	 0.0	 0.0	 0.0	 0.0	 0.0	 0.0	 0.0	 0.0	 0.0; % NG
	254	 55.0	 20.0	 20.0	 0.0	 1.09551	 78.8	 1	 55.0	 23.0	 0.0	 0.0	 0.0	 0.0	 0.0	 0.0	 0.0	 0.0	 0.0	 0.0	 0.0; % NG
	254	 43.5	 20.0	 20.0	 0.0	 1.09551	 68.8	 1	 50.0	 25.0	 0.0	 0.0	 0.0	 0.0	 0.0	 0.0	 0.0	 0.0	 0.0	 0.0	 0.0; % NG
	254	 50.0	 20.0	 20.0	 0.0	 1.09551	 68.8	 1	 50.0	 25.0	 0.0	 0.0	 0.0	 0.0	 0.0	 0.0	 0.0	 0.0	 0.0	 0.0	 0.0; % NG
	254	 23.0	 20.0	 12.0	 0.0	 1.09551	 27.6	 1	 23.0	 7.0	 0.0	 0.0	 0.0	 0.0	 0.0	 0.0	 0.0	 0.0	 0.0	 0.0	 0.0; % NG
	267	 2.1	 1.0	 1.0	 0.0	 1.05867	 0.7	 1	 2.1	 0.5	 0.0	 0.0	 0.0	 0.0	 0.0	 0.0	 0.0	 0.0	 0.0	 0.0	 0.0; % PEL
	268	 2.1	 1.0	 1.0	 0.0	 1.07476	 0.7	 1	 2.1	 0.5	 0.0	 0.0	 0.0	 0.0	 0.0	 0.0	 0.0	 0.0	 0.0	 0.0	 0.0; % PEL
	278	 0.0	 0.0	 4.0	 0.0	 1.0	 10.3	 0	 7.2	 5.9	 0.0	 0.0	 0.0	 0.0	 0.0	 0.0	 0.0	 0.0	 0.0	 0.0	 0.0; % COW
	279	 0.0	 0.0	 4.0	 0.0	 1.0	 10.3	 0	 7.2	 5.9	 0.0	 0.0	 0.0	 0.0	 0.0	 0.0	 0.0	 0.0	 0.0	 0.0	 0.0; % COW
	295	 5.0	 3.8	 3.0	 0.0	 1.08251	 5.0	 1	 5.0	 1.0	 0.0	 0.0	 0.0	 0.0	 0.0	 0.0	 0.0	 0.0	 0.0	 0.0	 0.0; % PEL
	295	 5.0	 3.8	 3.0	 0.0	 1.08251	 5.0	 1	 5.0	 1.0	 0.0	 0.0	 0.0	 0.0	 0.0	 0.0	 0.0	 0.0	 0.0	 0.0	 0.0; % COW
	295	 5.0	 3.8	 3.0	 0.0	 1.08251	 5.0	 1	 5.0	 1.0	 0.0	 0.0	 0.0	 0.0	 0.0	 0.0	 0.0	 0.0	 0.0	 0.0	 0.0; % NG
	295	 5.0	 3.8	 3.0	 0.0	 1.08251	 5.0	 1	 5.0	 1.0	 0.0	 0.0	 0.0	 0.0	 0.0	 0.0	 0.0	 0.0	 0.0	 0.0	 0.0; % NG
	310	 370.0	 190.0	 185.0	 -19.0	 0.99995	 426.0	 1	 370.0	 240.0	 0.0	 0.0	 0.0	 0.0	 0.0	 0.0	 0.0	 0.0	 0.0	 0.0	 0.0; % COW
	316	 0.0	 0.0	 2.0	 0.0	 1.0	 4.0	 0	 5.7	 1.0	 0.0	 0.0	 0.0	 0.0	 0.0	 0.0	 0.0	 0.0	 0.0	 0.0	 0.0; % NG
	316	 0.0	 0.0	 2.0	 0.0	 1.0	 4.0	 0	 5.7	 1.0	 0.0	 0.0	 0.0	 0.0	 0.0	 0.0	 0.0	 0.0	 0.0	 0.0	 0.0; % COW
	376	 6.6	 5.0	 4.0	 0.0	 1.09167	 8.4	 1	 6.6	 5.4	 0.0	 0.0	 0.0	 0.0	 0.0	 0.0	 0.0	 0.0	 0.0	 0.0	 0.0; % PEL
	379	 0.9	 1.0	 1.0	 0.0	 1.11164	 0.9	 1	 0.9	 0.3	 0.0	 0.0	 0.0	 0.0	 0.0	 0.0	 0.0	 0.0	 0.0	 0.0	 0.0; % PEL
	379	 0.9	 1.0	 1.0	 0.0	 1.11164	 0.9	 1	 0.9	 0.3	 0.0	 0.0	 0.0	 0.0	 0.0	 0.0	 0.0	 0.0	 0.0	 0.0	 0.0; % PEL
	379	 0.9	 1.0	 1.0	 0.0	 1.11164	 0.9	 1	 0.9	 0.3	 0.0	 0.0	 0.0	 0.0	 0.0	 0.0	 0.0	 0.0	 0.0	 0.0	 0.0; % PEL
	383	 27.0	 7.0	 7.0	 0.0	 1.11072	 31.3	 1	 27.0	 11.0	 0.0	 0.0	 0.0	 0.0	 0.0	 0.0	 0.0	 0.0	 0.0	 0.0	 0.0; % NG
...
];

%% generator cost data
%	2	startup	shutdown	n	c(n-1)	...	c0
mpc.gencost = [
	2	 0.0	 0.0	 3	   0.000000	 198.860000	   0.000000; % NG
	2	 0.0	 0.0	 3	   0.000000	 240.260000	   0.000000; % COW
	2	 0.0	 0.0	 3	   0.000000	 240.260000	   0.000000; % NG
	2	 0.0	 0.0	 3	   0.000000	 240.260000	   0.000000; % NG
	2	 0.0	 0.0	 3	   0.000000	 240.260000	   0.000000; % COW
	2	 0.0	 0.0	 3	   0.000000	 240.260000	   0.000000; % COW
	2	 0.0	 0.0	 3	   0.000000	 240.260000	   0.000000; % COW
	2	 0.0	 0.0	 3	   0.000000	 240.260000	   0.000000; % COW
	2	 0.0	 0.0	 3	   0.000000	 240.260000	   0.000000; % NG
	2	 0.0	 0.0	 3	   0.000000	 240.260000	   0.000000; % NG
	2	 0.0	 0.0	 3	   0.000000	 240.260000	   0.000000; % COW
	2	 0.0	 0.0	 3	   0.000000	 240.260000	   0.000000; % COW
	2	 0.0	 0.0	 3	   0.000000	 240.260000	   0.000000; % COW
	2	 0.0	 0.0	 3	   0.000000	 240.260000	   0.000000; % COW
	2	 0.0	 0.0	 3	   0.000000	 240.260000	   0.000000; % COW
	2	 0.0	 0.0	 3	   0.000000	 240.260000	   0.000000; % COW
	2	 0.0	 0.0	 3	   0.000000	 240.260000	   0.000000; % COW
	2	 0.0	 0.0	 3	   0.000000	 240.260000	   0.000000; % NG
	2	 0.0	 0.0	 3	   0.000000	 240.260000	   0.000000; % COW
	2	 0.0	 0.0	 3	   0.000000	 240.260000	   0.000000; % NG
	2	 0.0	 0.0	 3	   0.000000	 240.260000	   0.000000; % COW
	2	 0.0	 0.0	 3	   0.000000	 240.260000	   0.000000; % NG
	2	 0.0	 0.0	 3	   0.000000	 236.700000	   0.000000; % COW
	2	 0.0	 0.0	 3	   0.000000	 236.700000	   0.000000; % COW
	2	 0.0	 0.0	 3	   0.000000	 236.700000	   0.000000; % COW
	2	 0.0	 0.0	 3	   0.000000	 236.700000	   0.000000; % COW
	2	 0.0	 0.0	 3	   0.000000	 236.700000	   0.000000; % NG
	2	 0.0	 0.0	 3	   0.000000	 236.700000	   0.000000; % COW
	2	 0.0	 0.0	 3	   0.000000	 236.700000	   0.000000; % NG
	2	 0.0	 0.0	 3	   0.000000	 236.700000	   0.000000; % NG
	2	 0.0	 0.0	 3	   0.000000	 236.700000	   0.000000; % NG
	2	 0.0	 0.0	 3	   0.000000	 100.000000	   0.000000; % COW
	2	 0.0	 0.0	 3	   0.000000	 198.860000	   0.000000; % NG
	2	 0.0	 0.0	 3	   0.000000	 198.860000	   0.000000; % NG
	2	 0.0	 0.0	 3	   0.000000	 198.860000	   0.000000; % NG
	2	 0.0	 0.0	 3	   0.000000	 198.860000	   0.000000; % NG
	2	 0.0	 0.0	 3	   0.000000	 198.860000	   0.000000; % NG
	2	 0.0	 0.0	 3	   0.000000	 198.860000	   0.000000; % NG
	2	 0.0	 0.0	 3	   0.000000	 198.860000	   0.000000; % PEL
	2	 0.0	 0.0	 3	   0.000000	 198.860000	   0.000000; % PEL
	2	 0.0	 0.0	 3	   0.000000	 198.860000	   0.000000; % NG
	2	 0.0	 0.0	 3	   0.000000	 198.860000	   0.000000; % PEL
	2	 0.0	 0.0	 3	   0.000000	 198.860000	   0.000000; % NG
	2	 0.0	 0.0	 3	   0.000000	 198.860000	   0.000000; % PEL
	2	 0.0	 0.0	 3	   0.000000	 198.860000	   0.000000; % PEL
	2	 0.0	 0.0	 3	   0.000000	 198.860000	   0.000000; % NG
	2	 0.0	 0.0	 3	   0.000000	 198.860000	   0.000000; % NG
	2	 0.0	 0.0	 3	   0.000000	 198.860000	   0.000000; % NG
	2	 0.0	 0.0	 3	   0.000000	 198.860000	   0.000000; % NG
	2	 0.0	 0.0	 3	   0.000000	 198.860000	   0.000000; % NG
	2	 0.0	 0.0	 3	   0.000000	 198.860000	   0.000000; % NG
	2	 0.0	 0.0	 3	   0.000000	 198.860000	   0.000000; % NG
	2	 0.0	 0.0	 3	   0.000000	 198.860000	   0.000000; % COW
	2	 0.0	 0.0	 3	   0.000000	 198.860000	   0.000000; % NG
	2	 0.0	 0.0	 3	   0.000000	 198.860000	   0.000000; % NG
	2	 0.0	 0.0	 3	   0.000000	 198.860000	   0.000000; % COW
	2	 0.0	 0.0	 3	   0.000000	 198.860000	   0.000000; % NG
	2	 0.0	 0.0	 3	   0.000000	 198.860000	   0.000000; % NG
	2	 0.0	 0.0	 3	   0.000000	 198.860000	   0.000000; % NG
	2	 0.0	 0.0	 3	   0.000000	 198.860000	   0.000000; % NG
	2	 0.0	 0.0	 3	   0.000000	 198.860000	   0.000000; % NG
	2	 0.0	 0.0	 3	   0.000000	 198.860000	   0.000000; % COW
	2	 0.0	 0.0	 3	   0.000000	 198.860000	   0.000000; % COW
	2	 0.0	 0.0	 3	   0.000000	 198.860000	   0.000000; % NG
	2	 0.0	 0.0	 3	   0.000000	 198.860000	   0.000000; % NG
	2	 0.0	 0.0	 3	   0.000000	 198.860000	   0.000000; % COW
	2	 0.0	 0.0	 3	   0.000000	 198.860000	   0.000000; % NG
	2	 0.0	 0.0	 3	   0.000000	 198.860000	   0.000000; % NG
	2	 0.0	 0.0	 3	   0.000000	 198.860000	   0.000000; % NG
	2	 0.0	 0.0	 3	   0.000000	 198.860000	   0.000000; % PEL
	2	 0.0	 0.0	 3	   0.000000	 198.860000	   0.000000; % NG
	2	 0.0	 0.0	 3	   0.000000	 198.860000	   0.000000; % NG
	2	 0.0	 0.0	 3	   0.000000	 198.860000	   0.000000; % NG
	2	 0.0	 0.0	 3	   0.000000	 198.860000	   0.000000; % NG
	2	 0.0	 0.0	 3	   0.000000	 198.860000	   0.000000; % NG
	2	 0.0	 0.0	 3	   0.000000	 198.860000	   0.000000; % NG
	2	 0.0	 0.0	 3	   0.000000	 198.860000	   0.000000; % COW
	2	 0.0	 0.0	 3	   0.000000	 198.860000	   0.000000; % COW
	2	 0.0	 0.0	 3	   0.000000	 198.860000	   0.000000; % NG
	2	 0.0	 0.0	 3	   0.000000	 198.860000	   0.000000; % NG
	2	 0.0	 0.0	 3	   0.000000	 198.860000	   0.000000; % NG
	2	 0.0	 0.0	 3	   0.000000	 198.860000	   0.000000; % PEL
	2	 0.0	 0.0	 3	   0.000000	 198.860000	   0.000000; % NG
	2	 0.0	 0.0	 3	   0.000000	 198.860000	   0.000000; % COW
	2	 0.0	 0.0	 3	   0.000000	 198.860000	   0.000000; % PEL
	2	 0.0	 0.0	 3	   0.000000	 198.860000	   0.000000; % COW
	2	 0.0	 0.0	 3	   0.000000	 198.860000	   0.000000; % COW
	2	 0.0	 0.0	 3	   0.000000	 198.860000	   0.000000; % NG
	2	 0.0	 0.0	 3	   0.000000	 198.860000	   0.000000; % COW
	2	 0.0	 0.0	 3	   0.000000	 198.860000	   0.000000; % NG
	2	 0.0	 0.0	 3	   0.000000	 198.860000	   0.000000; % NG
	2	 0.0	 0.0	 3	   0.000000	 198.860000	   0.000000; % PEL
	2	 0.0	 0.0	 3	   0.000000	 198.860000	   0.000000; % NG
	2	 0.0	 0.0	 3	   0.000000	 198.860000	   0.000000; % NG
	2	 0.0	 0.0	 3	   0.000000	 158.610000	   0.000000; % NG
	2	 0.0	 0.0	 3	   0.000000	 158.610000	   0.000000; % NG
	2	 0.0	 0.0	 3	   0.000000	 107.030000	   0.000000; % NG
	2	 0.0	 0.0	 3	   0.000000	 107.030000	   0.000000; % NG
	2	 0.0	 0.0	 3	   0.000000	 107.030000	   0.000000; % NG
	2	 0.0	 0.0	 3	   0.000000	 107.030000	   0.000000; % NG
	2	 0.0	 0.0	 3	   0.000000	 107.030000	   0.000000; % NG
	2	 0.0	 0.0	 3	   0.000000	 107.030000	   0.000000; % COW
	2	 0.0	 0.0	 3	   0.000000	 107.030000	   0.000000; % COW
	2	 0.0	 0.0	 3	   0.000000	 107.030000	   0.000000; % COW
	2	 0.0	 0.0	 3	   0.000000	 107.030000	   0.000000; % NG
	2	 0.0	 0.0	 3	   0.000000	 107.030000	   0.000000; % NG
	2	 0.0	 0.0	 3	   0.000000	 107.030000	   0.000000; % COW
	2	 0.0	 0.0	 3	   0.000000	 143.520000	   0.000000; % NG
	2	 0.0	 0.0	 3	   0.000000	 143.520000	   0.000000; % NG
	2	 0.0	 0.0	 3	   0.000000	 143.520000	   0.000000; % NG
	2	 0.0	 0.0	 3	   0.000000	 143.520000	   0.000000; % NG
	2	 0.0	 0.0	 3	   0.000000	 143.520000	   0.000000; % NG
	2	 0.0	 0.0	 3	   0.000000	 143.520000	   0.000000; % NG
	2	 0.0	 0.0	 3	   0.000000	 143.520000	   0.000000; % NG
	2	 0.0	 0.0	 3	   0.000000	 143.520000	   0.000000; % COW
	2	 0.0	 0.0	 3	   0.000000	 148.160000	   0.000000; % NG
	2	 0.0	 0.0	 3	   0.000000	 148.160000	   0.000000; % NG
	2	 0.0	 0.0	 3	   0.000000	 148.160000	   0.000000; % NG
	2	 0.0	 0.0	 3	   0.000000	 148.160000	   0.000000; % NG
	2	 0.0	 0.0	 3	   0.000000	 148.160000	   0.000000; % NG
	2	 0.0	 0.0	 3	   0.000000	 148.160000	   0.000000; % NG
	2	 0.0	 0.0	 3	   0.000000	 148.160000	   0.000000; % NG
	2	 0.0	 0.0	 3	   0.000000	   0.000000	   0.000000; % COW
	2	 0.0	 0.0	 3	   0.000000	 134.040000	   0.000000; % COW
	2	 0.0	 0.0	 3	   0.000000	 134.040000	   0.000000; % COW
	2	 0.0	 0.0	 3	   0.000000	 134.040000	   0.000000; % NG
	2	 0.0	 0.0	 3	   0.000000	 134.040000	   0.000000; % NG
	2	 0.0	 0.0	 3	   0.000000	 134.040000	   0.000000; % COW
	2	 0.0	 0.0	 3	   0.000000	 126.620000	   0.000000; % NG
	2	 0.0	 0.0	 3	   0.000000	 126.620000	   0.000000; % NG
	2	 0.0	 0.0	 3	   0.000000	   0.000000	   0.000000; % NG
	2	 0.0	 0.0	 3	   0.000000	   0.000000	   0.000000; % NG
	2	 0.0	 0.0	 3	   0.000000	 130.490000	   0.000000; % NG
	2	 0.0	 0.0	 3	   0.000000	 130.490000	   0.000000; % NG
	2	 0.0	 0.0	 3	   0.000000	 132.330000	   0.000000; % NG
	2	 0.0	 0.0	 3	   0.000000	 132.330000	   0.000000; % NG
	2	 0.0	 0.0	 3	   0.000000	 136.590000	   0.000000; % COW
	2	 0.0	 0.0	 3	   0.000000	 136.590000	   0.000000; % NG
	2	 0.0	 0.0	 3	   0.000000	 139.960000	   0.000000; % COW
	2	 0.0	 0.0	 3	   0.000000	 128.210000	   0.000000; % NG
	2	 0.0	 0.0	 3	   0.000000	 128.210000	   0.000000; % NG
	2	 0.0	 0.0	 3	   0.000000	 128.210000	   0.000000; % NG
	2	 0.0	 0.0	 3	   0.000000	 128.210000	   0.000000; % COW
	2	 0.0	 0.0	 3	   0.000000	 128.210000	   0.000000; % NG
	2	 0.0	 0.0	 3	   0.000000	 137.400000	   0.000000; % COW
	2	 0.0	 0.0	 3	   0.000000	 137.400000	   0.000000; % COW
	2	 0.0	 0.0	 3	   0.000000	 137.400000	   0.000000; % NG
	2	 0.0	 0.0	 3	   0.000000	 137.400000	   0.000000; % COW
	2	 0.0	 0.0	 3	   0.000000	 129.990000	   0.000000; % NG
	2	 0.0	 0.0	 3	   0.000000	 129.990000	   0.000000; % NG
	2	 0.0	 0.0	 3	   0.000000	 129.990000	   0.000000; % NG
	2	 0.0	 0.0	 3	   0.000000	 135.600000	   0.000000; % NG
	2	 0.0	 0.0	 3	   0.000000	 135.600000	   0.000000; % PEL
	2	 0.0	 0.0	 3	   0.000000	 135.600000	   0.000000; % NG
	2	 0.0	 0.0	 3	   0.000000	 163.160000	   0.000000; % NG
	2	 0.0	 0.0	 3	   0.000000	 163.160000	   0.000000; % NG
	2	 0.0	 0.0	 3	   0.000000	 163.160000	   0.000000; % NG
	2	 0.0	 0.0	 3	   0.000000	 163.160000	   0.000000; % NG
	2	 0.0	 0.0	 3	   0.000000	 163.160000	   0.000000; % NG
	2	 0.0	 0.0	 3	   0.000000	 163.160000	   0.000000; % NG
	2	 0.0	 0.0	 3	   0.000000	 163.160000	   0.000000; % COW
	2	 0.0	 0.0	 3	   0.000000	 139.010000	   0.000000; % COW
	2	 0.0	 0.0	 3	   0.000000	 139.010000	   0.000000; % COW
	2	 0.0	 0.0	 3	   0.000000	 139.010000	   0.000000; % NG
	2	 0.0	 0.0	 3	   0.000000	 139.010000	   0.000000; % NG
	2	 0.0	 0.0	 3	   0.000000	 139.010000	   0.000000; % NG
	2	 0.0	 0.0	 3	   0.000000	 139.010000	   0.000000; % COW
	2	 0.0	 0.0	 3	   0.000000	 139.010000	   0.000000; % NG
	2	 0.0	 0.0	 3	   0.000000	 139.010000	   0.000000; % NG
	2	 0.0	 0.0	 3	   0.000000	 125.480000	   0.000000; % COW
	2	 0.0	 0.0	 3	   0.000000	 125.480000	   0.000000; % NG
	2	 0.0	 0.0	 3	   0.000000	 125.480000	   0.000000; % NG
	2	 0.0	 0.0	 3	   0.000000	 125.480000	   0.000000; % NG
	2	 0.0	 0.0	 3	   0.000000	 125.480000	   0.000000; % NG
	2	 0.0	 0.0	 3	   0.000000	 137.400000	   0.000000; % NG
	2	 0.0	 0.0	 3	   0.000000	 137.400000	   0.000000; % NG
	2	 0.0	 0.0	 3	   0.000000	 137.400000	   0.000000; % NG
	2	 0.0	 0.0	 3	   0.000000	 137.400000	   0.000000; % NG
	2	 0.0	 0.0	 3	   0.000000	 137.400000	   0.000000; % NG
	2	 0.0	 0.0	 3	   0.000000	   0.000000	   0.000000; % NG
	2	 0.0	 0.0	 3	   0.000000	   0.000000	   0.000000; % NG
	2	 0.0	 0.0	 3	   0.000000	   0.000000	   0.000000; % NG
	2	 0.0	 0.0	 3	   0.000000	   0.000000	   0.000000; % NG
	2	 0.0	 0.0	 3	   0.000000	   0.000000	   0.000000; % NG
	2	 0.0	 0.0	 3	   0.000000	   0.000000	   0.000000; % PEL
	2	 0.0	 0.0	 3	   0.000000	   0.000000	   0.000000; % PEL
	2	 0.0	 0.0	 3	   0.000000	   0.000000	   0.000000; % COW
	2	 0.0	 0.0	 3	   0.000000	   0.000000	   0.000000; % COW
	2	 0.0	 0.0	 3	   0.000000	   0.000000	   0.000000; % PEL
	2	 0.0	 0.0	 3	   0.000000	   0.000000	   0.000000; % COW
	2	 0.0	 0.0	 3	   0.000000	   0.000000	   0.000000; % NG
	2	 0.0	 0.0	 3	   0.000000	   0.000000	   0.000000; % NG
	2	 0.0	 0.0	 3	   0.000000	 107.030000	   0.000000; % COW
	2	 0.0	 0.0	 3	   0.000000	   0.000000	   0.000000; % NG
	2	 0.0	 0.0	 3	   0.000000	   0.000000	   0.000000; % COW
	2	 0.0	 0.0	 3	   0.000000	   0.000000	   0.000000; % PEL
	2	 0.0	 0.0	 3	   0.000000	   0.000000	   0.000000; % PEL
	2	 0.0	 0.0	 3	   0.000000	   0.000000	   0.000000; % PEL
	2	 0.0	 0.0	 3	   0.000000	   0.000000	   0.000000; % PEL
	2	 0.0	 0.0	 3	   0.000000	   0.000000	   0.000000; % NG
...
];

%% branch data
%	fbus	tbus	r	x	b	rateA	rateB	rateC	ratio	angle	status	angmin	angmax
mpc.branch = [
	10330	 10331	 1e-05	 8e-05	 0.0	 182	 182	 182	 0.0	 0.0	 1	 -30.0	 30.0;
	10300	 10355	 0.05932	 0.20245	 0.0	 121	 121	 121	 0.0	 0.0	 1	 -30.0	 30.0;
	10300	 10360	 0.02058	 0.05185	 0.0	 105	 105	 105	 0.0	 0.0	 1	 -30.0	 30.0;
	10367	 10201	 2e-05	 -0.04958	 0.0	 658	 200.0	 200.0	 0.999	 0.0	 1	 -30.0	 30.0;
	10367	 10202	 6e-05	 0.08346	 0.0	 390	 200.0	 200.0	 0.99999	 0.0	 1	 -30.0	 30.0;
	10366	 10367	 0.0026	 0.25917	 0.0	 126	 126	 126	 0.99999	 0.0	 1	 -30.0	 30.0;
	10368	 10215	 2e-05	 -0.04961	 0.0	 658	 200.0	 200.0	 0.999	 0.0	 1	 -30.0	 30.0;
	10368	 10216	 6e-05	 0.08373	 0.0	 389	 200.0	 200.0	 0.99999	 0.0	 1	 -30.0	 30.0;
	10369	 10368	 0.0026	 0.26125	 0.0	 125	 125	 125	 0.99999	 0.0	 1	 -30.0	 30.0;
	10090	 10083	 8e-05	 0.00079	 0.41456	 735	 735	 735	 0.0	 0.0	 1	 -30.0	 30.0;
	10138	 10164	 0.00168	 0.01733	 0.75504	 751	 751	 751	 0.0	 0.0	 1	 -30.0	 30.0;
	10139	 10109	 0.00071	 0.00594	 0.27872	 679	 679	 679	 0.0	 0.0	 1	 -30.0	 30.0;
	10139	 10144	 0.00075	 0.00681	 0.312	 706	 706	 706	 0.0	 0.0	 1	 -30.0	 30.0;
	10139	 10153	 0.00194	 0.02	 0.8336	 750	 750	 750	 0.0	 0.0	 1	 -30.0	 30.0;
	10140	 10110	 0.00071	 0.00594	 0.27872	 679	 679	 679	 0.0	 0.0	 1	 -30.0	 30.0;
	10140	 10143	 0.00075	 0.00681	 0.312	 706	 706	 706	 0.0	 0.0	 1	 -30.0	 30.0;
	10140	 10153	 0.00194	 0.02	 0.8336	 750	 750	 750	 0.0	 0.0	 1	 -30.0	 30.0;
	10141	 10153	 0.00233	 0.01696	 0.70784	 636	 636	 636	 0.0	 0.0	 1	 -30.0	 30.0;
	10090	 10085	 0.00017	 0.00148	 1.23008	 692	 692	 692	 0.0	 0.0	 1	 -30.0	 30.0;
	10141	 10158	 0.00204	 0.01707	 0.71344	 679	 679	 679	 0.0	 0.0	 1	 -30.0	 30.0;
	10141	 10158	 0.00204	 0.01707	 0.71344	 679	 679	 679	 0.0	 0.0	 1	 -30.0	 30.0;
	10143	 10144	 1e-05	 6e-05	 0.0	 580	 580	 580	 0.0	 0.0	 1	 -30.0	 30.0;
	10143	 10153	 0.00169	 0.01381	 0.6496	 672	 672	 672	 0.0	 0.0	 1	 -30.0	 30.0;
	10143	 10156	 0.00119	 0.00969	 0.4544	 671	 671	 671	 0.0	 0.0	 1	 -30.0	 30.0;
	10144	 10126	 0.00306	 0.02537	 1.19168	 676	 676	 676	 0.0	 0.0	 1	 -30.0	 30.0;
	10144	 10153	 0.00169	 0.01381	 0.6496	 672	 672	 672	 0.0	 0.0	 1	 -30.0	 30.0;
	10144	 10165	 0.00244	 0.02044	 0.9584	 680	 680	 680	 0.0	 0.0	 1	 -30.0	 30.0;
	10091	 10090	 9e-05	 0.00106	 1.10432	 800	 800	 800	 0.0	 0.0	 1	 -30.0	 30.0;
	10145	 10147	 0.00194	 0.01606	 0.75456	 676	 676	 676	 0.0	 0.0	 1	 -30.0	 30.0;
	10145	 10158	 0.00189	 0.01232	 0.61088	 603	 603	 603	 0.0	 0.0	 1	 -30.0	 30.0;
	10171	 10094	 0.0	 6e-05	 0.0	 99999.0	 1593.0	 1593.0	 0.0	 0.0	 1	 -30.0	 30.0;
	10145	 10082	 0.00091	 0.00923	 0.39197	 745	 745	 745	 0.0	 0.0	 1	 -30.0	 30.0;
	10145	 10082	 0.00091	 0.00923	 0.39197	 745	 745	 745	 0.0	 0.0	 1	 -30.0	 30.0;
	10146	 10154	 0.00503	 0.01845	 0.05812	 252	 252	 252	 0.0	 0.0	 1	 -30.0	 30.0;
	10172	 10095	 0.0	 6e-05	 0.0	 99999.0	 1386.0	 1386.0	 0.0	 0.0	 1	 -30.0	 30.0;
	10147	 10153	 0.00156	 0.01288	 0.6032	 675	 675	 675	 0.0	 0.0	 1	 -30.0	 30.0;
	10173	 10095	 0.0	 6e-05	 0.0	 99999.0	 1386.0	 1386.0	 0.0	 0.0	 1	 -30.0	 30.0;
	10147	 10153	 0.00156	 0.01288	 0.6032	 675	 675	 675	 0.0	 0.0	 1	 -30.0	 30.0;
	10174	 10096	 2e-05	 0.00016	 0.0008	 665	 665	 665	 0.0	 0.0	 1	 -30.0	 30.0;
	10147	 10161	 0.00113	 0.00962	 0.4528	 685	 685	 685	 0.0	 0.0	 1	 -30.0	 30.0;
	10176	 10098	 0.00029	 0.00219	 0.11056	 647	 647	 647	 0.0	 0.0	 1	 -30.0	 30.0;
...